<?xml version="1.0" encoding="UTF-8"?>

<!-- generated on 02/03/21 17:37:52 by Eclipse SUMO netedit Version 1.7.0
<configuration xmlns:xsi="http://www.w3.org/2001/XMLSchema-instance" xsi:noNamespaceSchemaLocation="http://sumo.dlr.de/xsd/netconvertConfiguration.xsd">

    <input>
        <sumo-net-file value="scenario.net.xml"/>
    </input>

    <output>
        <output-file value="scenario.net.xml"/>
    </output>

    <processing>
        <geometry.min-radius.fix.railways value="false"/>
        <geometry.max-grade.fix value="false"/>
        <offset.disable-normalization value="true"/>
        <lefthand value="false"/>
    </processing>

    <junctions>
        <no-turnarounds value="true"/>
        <junctions.corner-detail value="0"/>
        <junctions.limit-turn-speed value="-1"/>
        <rectangular-lane-cut value="false"/>
    </junctions>

    <pedestrian>
        <walkingareas value="false"/>
    </pedestrian>

    <report>
        <aggregate-warnings value="5"/>
    </report>

</configuration>
-->

<net version="1.6" xmlns:xsi="http://www.w3.org/2001/XMLSchema-instance" xsi:noNamespaceSchemaLocation="http://sumo.dlr.de/xsd/net_file.xsd">

    <location netOffset="-385281.94,-5817994.50" convBoundary="0.00,0.00,730.46,3336.50" origBoundary="385281.94,5816866.50,386012.40,5821331.00" projParameter="!"/>

    <edge id=":1_0" function="internal">
        <lane id=":1_0_0" index="0" speed="13.89" length="4.67" shape="-1.60,0.04 -0.83,-1.18 -0.04,-1.60 0.77,-1.22 1.60,-0.04"/>
    </edge>
    <edge id=":2_0" function="internal">
        <lane id=":2_0_0" index="0" speed="13.89" length="14.40" shape="21.40,1119.31 21.06,1104.91"/>
        <lane id=":2_0_1" index="1" speed="13.89" length="14.40" shape="24.60,1119.23 24.26,1104.84"/>
    </edge>
    <edge id=":2_2" function="internal">
        <lane id=":2_2_0" index="0" speed="13.89" length="5.26" shape="24.60,1119.23 25.26,1115.37 26.08,1114.31"/>
    </edge>
    <edge id=":2_3" function="internal">
        <lane id=":2_3_0" index="0" speed="13.89" length="2.34" shape="24.60,1119.23 25.37,1118.02 26.16,1117.60"/>
    </edge>
    <edge id=":2_11" function="internal">
        <lane id=":2_11_0" index="0" speed="13.89" length="11.59" shape="26.08,1114.31 27.44,1112.57 31.15,1110.83 36.39,1110.16"/>
    </edge>
    <edge id=":2_12" function="internal">
        <lane id=":2_12_0" index="0" speed="13.89" length="2.34" shape="26.16,1117.60 26.97,1117.98 27.80,1119.16"/>
    </edge>
    <edge id=":2_4" function="internal">
        <lane id=":2_4_0" index="0" speed="13.89" length="9.03" shape="36.47,1113.35 34.02,1113.76 32.30,1114.85 31.29,1116.63 31.00,1119.08"/>
    </edge>
    <edge id=":2_5" function="internal">
        <lane id=":2_5_0" index="0" speed="13.89" length="16.85" shape="36.47,1113.35 31.20,1112.93 27.42,1111.37 25.10,1108.67 24.26,1104.84"/>
    </edge>
    <edge id=":2_6" function="internal">
        <lane id=":2_6_0" index="0" speed="13.89" length="4.67" shape="36.47,1113.35 35.25,1112.58 34.83,1111.79 35.21,1110.98 36.39,1110.16"/>
    </edge>
    <edge id=":2_7" function="internal">
        <lane id=":2_7_0" index="0" speed="13.89" length="9.03" shape="30.66,1104.69 31.07,1107.13 32.16,1108.85 33.93,1109.86 36.39,1110.16"/>
    </edge>
    <edge id=":2_8" function="internal">
        <lane id=":2_8_0" index="0" speed="13.89" length="14.40" shape="30.66,1104.69 31.00,1119.08"/>
        <lane id=":2_8_1" index="1" speed="13.89" length="14.40" shape="27.46,1104.76 27.80,1119.16"/>
    </edge>
    <edge id=":2_10" function="internal">
        <lane id=":2_10_0" index="0" speed="13.89" length="2.34" shape="27.46,1104.76 26.69,1105.98 25.90,1106.40"/>
    </edge>
    <edge id=":2_13" function="internal">
        <lane id=":2_13_0" index="0" speed="13.89" length="2.34" shape="25.90,1106.40 25.09,1106.02 24.26,1104.84"/>
    </edge>
    <edge id=":3_0" function="internal">
        <lane id=":3_0_0" index="0" speed="13.89" length="14.40" shape="47.43,2231.81 47.09,2217.41"/>
        <lane id=":3_0_1" index="1" speed="13.89" length="14.40" shape="50.63,2231.73 50.29,2217.34"/>
    </edge>
    <edge id=":3_2" function="internal">
        <lane id=":3_2_0" index="0" speed="13.89" length="5.26" shape="50.63,2231.73 51.29,2227.87 52.11,2226.81"/>
    </edge>
    <edge id=":3_3" function="internal">
        <lane id=":3_3_0" index="0" speed="13.89" length="2.34" shape="50.63,2231.73 51.40,2230.52 52.19,2230.10"/>
    </edge>
    <edge id=":3_11" function="internal">
        <lane id=":3_11_0" index="0" speed="13.89" length="11.59" shape="52.11,2226.81 53.47,2225.07 57.18,2223.33 62.42,2222.66"/>
    </edge>
    <edge id=":3_12" function="internal">
        <lane id=":3_12_0" index="0" speed="13.89" length="2.34" shape="52.19,2230.10 53.00,2230.48 53.83,2231.66"/>
    </edge>
    <edge id=":3_4" function="internal">
        <lane id=":3_4_0" index="0" speed="13.89" length="9.03" shape="62.50,2225.85 60.05,2226.26 58.33,2227.35 57.32,2229.13 57.03,2231.58"/>
    </edge>
    <edge id=":3_5" function="internal">
        <lane id=":3_5_0" index="0" speed="13.89" length="16.85" shape="62.50,2225.85 57.23,2225.43 53.45,2223.87 51.13,2221.17 50.29,2217.34"/>
    </edge>
    <edge id=":3_6" function="internal">
        <lane id=":3_6_0" index="0" speed="13.89" length="4.67" shape="62.50,2225.85 61.28,2225.08 60.86,2224.29 61.24,2223.48 62.42,2222.66"/>
    </edge>
    <edge id=":3_7" function="internal">
        <lane id=":3_7_0" index="0" speed="13.89" length="9.03" shape="56.69,2217.19 57.10,2219.63 58.19,2221.35 59.96,2222.36 62.42,2222.66"/>
    </edge>
    <edge id=":3_8" function="internal">
        <lane id=":3_8_0" index="0" speed="13.89" length="14.40" shape="56.69,2217.19 57.03,2231.58"/>
        <lane id=":3_8_1" index="1" speed="13.89" length="14.40" shape="53.49,2217.26 53.83,2231.66"/>
    </edge>
    <edge id=":3_10" function="internal">
        <lane id=":3_10_0" index="0" speed="13.89" length="2.34" shape="53.49,2217.26 52.72,2218.48 51.93,2218.90"/>
    </edge>
    <edge id=":3_13" function="internal">
        <lane id=":3_13_0" index="0" speed="13.89" length="2.34" shape="51.93,2218.90 51.12,2218.52 50.29,2217.34"/>
    </edge>
    <edge id=":4_0" function="internal">
        <lane id=":4_0_0" index="0" speed="13.89" length="4.67" shape="79.72,3336.46 78.95,3337.68 78.16,3338.10 77.35,3337.72 76.52,3336.54"/>
    </edge>
    <edge id=":5_0" function="internal">
        <lane id=":5_0_0" index="0" speed="13.89" length="2.58" shape="703.06,1099.24 702.95,1098.54 702.64,1098.05 702.13,1097.76 701.43,1097.68"/>
    </edge>
    <edge id=":5_1" function="internal">
        <lane id=":5_1_0" index="0" speed="13.89" length="2.08" shape="703.06,1099.24 703.84,1098.02 704.40,1097.72"/>
    </edge>
    <edge id=":5_4" function="internal">
        <lane id=":5_4_0" index="0" speed="13.89" length="2.59" shape="704.40,1097.72 704.63,1097.60 705.44,1097.98 706.26,1099.16"/>
    </edge>
    <edge id=":5_2" function="internal">
        <lane id=":5_2_0" index="0" speed="13.89" length="7.74" shape="701.35,1094.48 703.46,1094.73 704.98,1095.59 705.92,1097.07 706.26,1099.16"/>
    </edge>
    <edge id=":5_3" function="internal">
        <lane id=":5_3_0" index="0" speed="13.89" length="2.66" shape="701.35,1094.48 702.57,1095.25 702.99,1096.04 702.85,1096.33"/>
    </edge>
    <edge id=":5_5" function="internal">
        <lane id=":5_5_0" index="0" speed="13.89" length="2.01" shape="702.85,1096.33 702.61,1096.85 701.43,1097.68"/>
    </edge>
    <edge id=":6_0" function="internal">
        <lane id=":6_0_0" index="0" speed="13.89" length="7.74" shape="731.99,2205.26 731.73,2207.37 730.87,2208.89 729.39,2209.83 727.30,2210.17"/>
    </edge>
    <edge id=":6_1" function="internal">
        <lane id=":6_1_0" index="0" speed="13.89" length="2.66" shape="731.99,2205.26 731.21,2206.48 730.42,2206.90 730.13,2206.76"/>
    </edge>
    <edge id=":6_4" function="internal">
        <lane id=":6_4_0" index="0" speed="13.89" length="2.01" shape="730.13,2206.76 729.61,2206.52 728.79,2205.34"/>
    </edge>
    <edge id=":6_2" function="internal">
        <lane id=":6_2_0" index="0" speed="13.89" length="2.58" shape="727.22,2206.98 727.92,2206.86 728.41,2206.55 728.70,2206.04 728.79,2205.34"/>
    </edge>
    <edge id=":6_3" function="internal">
        <lane id=":6_3_0" index="0" speed="13.89" length="2.08" shape="727.22,2206.98 728.44,2207.75 728.74,2208.31"/>
    </edge>
    <edge id=":6_5" function="internal">
        <lane id=":6_5_0" index="0" speed="13.89" length="2.59" shape="728.74,2208.31 728.86,2208.54 728.48,2209.35 727.30,2210.17"/>
    </edge>

    <edge id="1_1_2" from="1" to="2" priority="-1">
        <lane id="1_1_2_0" index="0" speed="13.89" length="1105.10" shape="4.80,-0.11 30.66,1104.69"/>
        <lane id="1_1_2_1" index="1" speed="13.89" length="1105.10" shape="1.60,-0.04 27.46,1104.76"/>
    </edge>
    <edge id="1_2_1" from="2" to="1" priority="-1">
        <lane id="1_2_1_0" index="0" speed="13.89" length="1105.10" shape="21.06,1104.91 -4.80,0.11"/>
        <lane id="1_2_1_1" index="1" speed="13.89" length="1105.10" shape="24.26,1104.84 -1.60,0.04"/>
    </edge>
    <edge id="1_2_3" from="2" to="3" priority="-1">
        <lane id="1_2_3_0" index="0" speed="13.89" length="1098.40" shape="31.00,1119.08 56.69,2217.19"/>
        <lane id="1_2_3_1" index="1" speed="13.89" length="1098.40" shape="27.80,1119.16 53.49,2217.26"/>
    </edge>
    <edge id="1_3_2" from="3" to="2" priority="-1">
        <lane id="1_3_2_0" index="0" speed="13.89" length="1098.40" shape="47.09,2217.41 21.40,1119.31"/>
        <lane id="1_3_2_1" index="1" speed="13.89" length="1098.40" shape="50.29,2217.34 24.60,1119.23"/>
    </edge>
    <edge id="1_3_4" from="3" to="4" priority="-1">
        <lane id="1_3_4_0" index="0" speed="13.89" length="1105.11" shape="57.03,2231.58 82.92,3336.39"/>
        <lane id="1_3_4_1" index="1" speed="13.89" length="1105.11" shape="53.83,2231.66 79.72,3336.46"/>
    </edge>
    <edge id="1_4_3" from="4" to="3" priority="-1">
        <lane id="1_4_3_0" index="0" speed="13.89" length="1105.11" shape="73.32,3336.61 47.43,2231.81"/>
        <lane id="1_4_3_1" index="1" speed="13.89" length="1105.11" shape="76.52,3336.54 50.63,2231.73"/>
    </edge>
    <edge id="2_2_5" from="2" to="5" priority="-1">
        <lane id="2_2_5_0" index="0" speed="13.89" length="665.15" shape="36.39,1110.16 701.35,1094.48"/>
    </edge>
    <edge id="2_3_6" from="3" to="6" priority="-1">
        <lane id="2_3_6_0" index="0" speed="13.89" length="664.99" shape="62.42,2222.66 727.22,2206.98"/>
    </edge>
    <edge id="2_5_2" from="5" to="2" priority="-1">
        <lane id="2_5_2_0" index="0" speed="13.89" length="665.15" shape="701.43,1097.68 36.47,1113.35"/>
    </edge>
    <edge id="2_5_6" from="5" to="6" priority="-1">
        <lane id="2_5_6_0" index="0" speed="13.89" length="1106.40" shape="706.26,1099.16 731.99,2205.26"/>
    </edge>
    <edge id="2_6_3" from="6" to="3" priority="-1">
        <lane id="2_6_3_0" index="0" speed="13.89" length="664.99" shape="727.30,2210.17 62.50,2225.85"/>
    </edge>
    <edge id="2_6_5" from="6" to="5" priority="-1">
        <lane id="2_6_5_0" index="0" speed="13.89" length="1106.40" shape="728.79,2205.34 703.06,1099.24"/>
    </edge>

    <tlLogic id="2" type="static" programID="0" offset="0">
        <phase duration="31" state="GGggrrrGGGg"/>
        <phase duration="4"  state="yyggrrryyyg"/>
        <phase duration="6"  state="rrGGrrrrrrG"/>
        <phase duration="4"  state="rryyrrrrrry"/>
        <phase duration="31" state="rrrrGGgGrrr"/>
        <phase duration="4"  state="rrrryyyyrrr"/>
        <param key="test" value="this is just a test param"/>
        <param key="test2" value="this is just a second test param"/>
    </tlLogic>

    <junction id="1" type="priority" x="0.00" y="0.00" incLanes="1_2_1_0 1_2_1_1" intLanes=":1_0_0" shape="0.00,0.00 -6.40,0.15 0.00,0.00">
        <request index="0" response="0" foes="0" cont="0"/>
    </junction>
    <junction id="2" type="traffic_light" x="26.03" y="1112.00" incLanes="1_3_2_0 1_3_2_1 2_5_2_0 1_1_2_0 1_1_2_1" intLanes=":2_0_0 :2_0_1 :2_11_0 :2_12_0 :2_4_0 :2_5_0 :2_6_0 :2_7_0 :2_8_0 :2_8_1 :2_13_0" shape="19.80,1119.35 32.60,1119.05 36.50,1114.95 36.35,1108.56 32.26,1104.65 19.46,1104.95">
        <request index="0"  response="00000000000" foes="10000100000" cont="0"/>
        <request index="1"  response="00000000000" foes="10000100000" cont="0"/>
        <request index="2"  response="01110000000" foes="01111100000" cont="1"/>
        <request index="3"  response="01100000000" foes="01100000000" cont="1"/>
        <request index="4"  response="01100000000" foes="01100000000" cont="0"/>
        <request index="5"  response="11100000111" foes="11100000111" cont="0"/>
        <request index="6"  response="00010000100" foes="00010000100" cont="0"/>
        <request index="7"  response="00000000000" foes="00001000100" cont="0"/>
        <request index="8"  response="00000000000" foes="00000111100" cont="0"/>
        <request index="9"  response="00000000000" foes="00000111100" cont="0"/>
        <request index="10" response="00000000011" foes="00000100011" cont="1"/>
    </junction>
    <junction id="3" type="traffic_light" x="52.06" y="2224.50" incLanes="1_4_3_0 1_4_3_1 2_6_3_0 1_2_3_0 1_2_3_1" intLanes=":3_0_0 :3_0_1 :3_11_0 :3_12_0 :3_4_0 :3_5_0 :3_6_0 :3_7_0 :3_8_0 :3_8_1 :3_13_0" shape="45.83,2231.85 58.63,2231.55 62.53,2227.45 62.38,2221.06 58.29,2217.15 45.49,2217.45">
        <request index="0"  response="00000100000" foes="10000100000" cont="0"/>
        <request index="1"  response="00000100000" foes="10000100000" cont="0"/>
        <request index="2"  response="01111100000" foes="01111100000" cont="1"/>
        <request index="3"  response="01100000000" foes="01100000000" cont="1"/>
        <request index="4"  response="00000000000" foes="01100000000" cont="0"/>
        <request index="5"  response="00000000000" foes="11100000111" cont="0"/>
        <request index="6"  response="00000000000" foes="00010000100" cont="0"/>
        <request index="7"  response="00001000000" foes="00001000100" cont="0"/>
        <request index="8"  response="00000110000" foes="00000111100" cont="0"/>
        <request index="9"  response="00000110000" foes="00000111100" cont="0"/>
        <request index="10" response="00000100011" foes="00000100011" cont="1"/>
    </junction>
    <junction id="4" type="priority" x="78.12" y="3336.50" incLanes="1_3_4_0 1_3_4_1" intLanes=":4_0_0" shape="78.12,3336.50 84.52,3336.35 78.12,3336.50">
        <request index="0" response="0" foes="0" cont="0"/>
    </junction>
    <junction id="5" type="priority" x="704.59" y="1096.00" incLanes="2_6_5_0 2_2_5_0" intLanes=":5_0_0 :5_4_0 :5_2_0 :5_5_0" shape="701.47,1099.27 707.86,1099.13 701.31,1092.88">
        <request index="0" response="0000" foes="1000" cont="0"/>
        <request index="1" response="0100" foes="0100" cont="1"/>
        <request index="2" response="0000" foes="0010" cont="0"/>
        <request index="3" response="0001" foes="0001" cont="1"/>
    </junction>
    <junction id="6" type="priority" x="730.46" y="2208.50" incLanes="2_5_6_0 2_3_6_0" intLanes=":6_0_0 :6_4_0 :6_2_0 :6_5_0" shape="733.58,2205.23 727.19,2205.38 727.34,2211.77">
        <request index="0" response="0000" foes="1000" cont="0"/>
        <request index="1" response="0100" foes="0100" cont="1"/>
        <request index="2" response="0000" foes="0010" cont="0"/>
        <request index="3" response="0001" foes="0001" cont="1"/>
    </junction>

    <junction id=":2_11_0" type="internal" x="26.08" y="1114.31" incLanes=":2_2_0 1_1_2_0 1_1_2_1" intLanes=":2_5_0 :2_6_0 :2_7_0 :2_8_0 :2_8_1"/>
    <junction id=":2_12_0" type="internal" x="26.16" y="1117.60" incLanes=":2_3_0 1_1_2_0 1_1_2_1" intLanes=":2_4_0 :2_8_0 :2_8_1"/>
    <junction id=":2_13_0" type="internal" x="25.90" y="1106.40" incLanes=":2_10_0 1_3_2_0 1_3_2_1" intLanes=":2_0_0 :2_0_1 :2_5_0"/>
    <junction id=":3_11_0" type="internal" x="52.11" y="2226.81" incLanes=":3_2_0 1_2_3_0 1_2_3_1" intLanes=":3_5_0 :3_6_0 :3_7_0 :3_8_0 :3_8_1"/>
    <junction id=":3_12_0" type="internal" x="52.19" y="2230.10" incLanes=":3_3_0 1_2_3_0 1_2_3_1 2_6_3_0" intLanes=":3_4_0 :3_8_0 :3_8_1"/>
    <junction id=":3_13_0" type="internal" x="51.93" y="2218.90" incLanes=":3_10_0 1_4_3_0 1_4_3_1 2_6_3_0" intLanes=":3_0_0 :3_0_1 :3_5_0"/>
    <junction id=":5_4_0" type="internal" x="704.40" y="1097.72" incLanes=":5_1_0 2_2_5_0" intLanes=":5_2_0"/>
    <junction id=":5_5_0" type="internal" x="702.85" y="1096.33" incLanes=":5_3_0 2_6_5_0" intLanes=":5_0_0"/>
    <junction id=":6_4_0" type="internal" x="730.13" y="2206.76" incLanes=":6_1_0 2_3_6_0" intLanes=":6_2_0"/>
    <junction id=":6_5_0" type="internal" x="728.74" y="2208.31" incLanes=":6_3_0 2_5_6_0" intLanes=":6_0_0"/>

    <connection from="1_1_2" to="2_2_5" fromLane="0" toLane="0" via=":2_7_0" tl="2" linkIndex="7" dir="r" state="O"/>
    <connection from="1_1_2" to="1_2_3" fromLane="0" toLane="0" via=":2_8_0" tl="2" linkIndex="8" dir="s" state="O"/>
    <connection from="1_1_2" to="1_2_3" fromLane="1" toLane="1" via=":2_8_1" tl="2" linkIndex="9" dir="s" state="O"/>
    <connection from="1_1_2" to="1_2_1" fromLane="1" toLane="1" via=":2_10_0" tl="2" linkIndex="10" dir="t" state="o"/>
    <connection from="1_2_1" to="1_1_2" fromLane="1" toLane="1" via=":1_0_0" dir="t" state="M"/>
    <connection from="1_2_3" to="2_3_6" fromLane="0" toLane="0" via=":3_7_0" dir="r" state="m"/>
    <connection from="1_2_3" to="1_3_4" fromLane="0" toLane="0" via=":3_8_0" dir="s" state="M"/>
    <connection from="1_2_3" to="1_3_4" fromLane="1" toLane="1" via=":3_8_1" dir="s" state="M"/>
    <connection from="1_2_3" to="1_3_2" fromLane="1" toLane="1" via=":3_10_0" dir="t" state="m"/>
    <connection from="1_3_2" to="1_2_1" fromLane="0" toLane="0" via=":2_0_0" tl="2" linkIndex="0" dir="s" state="O"/>
    <connection from="1_3_2" to="1_2_1" fromLane="1" toLane="1" via=":2_0_1" tl="2" linkIndex="1" dir="s" state="O"/>
    <connection from="1_3_2" to="2_2_5" fromLane="1" toLane="0" via=":2_2_0" tl="2" linkIndex="2" dir="l" state="o"/>
    <connection from="1_3_2" to="1_2_3" fromLane="1" toLane="1" via=":2_3_0" tl="2" linkIndex="3" dir="t" state="o"/>
    <connection from="1_3_4" to="1_4_3" fromLane="1" toLane="1" via=":4_0_0" dir="t" state="M"/>
    <connection from="1_4_3" to="1_3_2" fromLane="0" toLane="0" via=":3_0_0" dir="s" state="m"/>
    <connection from="1_4_3" to="1_3_2" fromLane="1" toLane="1" via=":3_0_1" dir="s" state="m"/>
    <connection from="1_4_3" to="2_3_6" fromLane="1" toLane="0" via=":3_2_0" dir="l" state="m"/>
    <connection from="1_4_3" to="1_3_4" fromLane="1" toLane="1" via=":3_3_0" dir="t" state="m"/>
    <connection from="2_2_5" to="2_5_6" fromLane="0" toLane="0" via=":5_2_0" dir="l" state="M"/>
    <connection from="2_2_5" to="2_5_2" fromLane="0" toLane="0" via=":5_3_0" dir="t" state="m"/>
    <connection from="2_3_6" to="2_6_5" fromLane="0" toLane="0" via=":6_2_0" dir="r" state="M"/>
    <connection from="2_3_6" to="2_6_3" fromLane="0" toLane="0" via=":6_3_0" dir="t" state="m"/>
    <connection from="2_5_2" to="1_2_3" fromLane="0" toLane="0" uncontrolled="1" via=":2_4_0" dir="r" state="m"/>
    <connection from="2_5_2" to="1_2_1" fromLane="0" toLane="1" uncontrolled="1" via=":2_5_0" dir="l" state="m"/>
    <connection from="2_5_2" to="2_2_5" fromLane="0" toLane="0" uncontrolled="1" via=":2_6_0" dir="t" state="m"/>
    <connection from="2_5_6" to="2_6_3" fromLane="0" toLane="0" via=":6_0_0" dir="l" state="M"/>
    <connection from="2_5_6" to="2_6_5" fromLane="0" toLane="0" via=":6_1_0" dir="t" state="m"/>
    <connection from="2_6_3" to="1_3_4" fromLane="0" toLane="0" via=":3_4_0" tl="2" linkIndex="4" dir="r" state="O"/>
    <connection from="2_6_3" to="1_3_2" fromLane="0" toLane="1" via=":3_5_0" tl="2" linkIndex="5" dir="l" state="O"/>
    <connection from="2_6_3" to="2_3_6" fromLane="0" toLane="0" via=":3_6_0" tl="2" linkIndex="6" dir="t" state="O"/>
    <connection from="2_6_5" to="2_5_2" fromLane="0" toLane="0" via=":5_0_0" dir="r" state="M"/>
    <connection from="2_6_5" to="2_5_6" fromLane="0" toLane="0" via=":5_1_0" dir="t" state="m"/>

    <connection from=":1_0" to="1_1_2" fromLane="0" toLane="1" dir="t" state="M"/>
    <connection from=":2_0" to="1_2_1" fromLane="0" toLane="0" dir="s" state="M"/>
    <connection from=":2_0" to="1_2_1" fromLane="1" toLane="1" dir="s" state="M"/>
    <connection from=":2_2" to="2_2_5" fromLane="0" toLane="0" via=":2_11_0" dir="l" state="m"/>
    <connection from=":2_11" to="2_2_5" fromLane="0" toLane="0" dir="l" state="M"/>
    <connection from=":2_3" to="1_2_3" fromLane="0" toLane="1" via=":2_12_0" dir="t" state="m"/>
    <connection from=":2_12" to="1_2_3" fromLane="0" toLane="1" dir="t" state="M"/>
    <connection from=":2_4" to="1_2_3" fromLane="0" toLane="0" dir="r" state="M"/>
    <connection from=":2_5" to="1_2_1" fromLane="0" toLane="1" dir="l" state="M"/>
    <connection from=":2_6" to="2_2_5" fromLane="0" toLane="0" dir="t" state="M"/>
    <connection from=":2_7" to="2_2_5" fromLane="0" toLane="0" dir="r" state="M"/>
    <connection from=":2_8" to="1_2_3" fromLane="0" toLane="0" dir="s" state="M"/>
    <connection from=":2_8" to="1_2_3" fromLane="1" toLane="1" dir="s" state="M"/>
    <connection from=":2_10" to="1_2_1" fromLane="0" toLane="1" via=":2_13_0" dir="t" state="m"/>
    <connection from=":2_13" to="1_2_1" fromLane="0" toLane="1" dir="t" state="M"/>
    <connection from=":3_0" to="1_3_2" fromLane="0" toLane="0" dir="s" state="M"/>
    <connection from=":3_0" to="1_3_2" fromLane="1" toLane="1" dir="s" state="M"/>
    <connection from=":3_2" to="2_3_6" fromLane="0" toLane="0" via=":3_11_0" dir="l" state="m"/>
    <connection from=":3_11" to="2_3_6" fromLane="0" toLane="0" dir="l" state="M"/>
    <connection from=":3_3" to="1_3_4" fromLane="0" toLane="1" via=":3_12_0" dir="t" state="m"/>
    <connection from=":3_12" to="1_3_4" fromLane="0" toLane="1" dir="t" state="M"/>
    <connection from=":3_4" to="1_3_4" fromLane="0" toLane="0" dir="r" state="M"/>
    <connection from=":3_5" to="1_3_2" fromLane="0" toLane="1" dir="l" state="M"/>
    <connection from=":3_6" to="2_3_6" fromLane="0" toLane="0" dir="t" state="M"/>
    <connection from=":3_7" to="2_3_6" fromLane="0" toLane="0" dir="r" state="M"/>
    <connection from=":3_8" to="1_3_4" fromLane="0" toLane="0" dir="s" state="M"/>
    <connection from=":3_8" to="1_3_4" fromLane="1" toLane="1" dir="s" state="M"/>
    <connection from=":3_10" to="1_3_2" fromLane="0" toLane="1" via=":3_13_0" dir="t" state="m"/>
    <connection from=":3_13" to="1_3_2" fromLane="0" toLane="1" dir="t" state="M"/>
    <connection from=":4_0" to="1_4_3" fromLane="0" toLane="1" dir="t" state="M"/>
    <connection from=":5_0" to="2_5_2" fromLane="0" toLane="0" dir="r" state="M"/>
    <connection from=":5_1" to="2_5_6" fromLane="0" toLane="0" via=":5_4_0" dir="t" state="m"/>
    <connection from=":5_4" to="2_5_6" fromLane="0" toLane="0" dir="t" state="M"/>
    <connection from=":5_2" to="2_5_6" fromLane="0" toLane="0" dir="l" state="M"/>
    <connection from=":5_3" to="2_5_2" fromLane="0" toLane="0" via=":5_5_0" dir="t" state="m"/>
    <connection from=":5_5" to="2_5_2" fromLane="0" toLane="0" dir="t" state="M"/>
    <connection from=":6_0" to="2_6_3" fromLane="0" toLane="0" dir="l" state="M"/>
    <connection from=":6_1" to="2_6_5" fromLane="0" toLane="0" via=":6_4_0" dir="t" state="m"/>
    <connection from=":6_4" to="2_6_5" fromLane="0" toLane="0" dir="t" state="M"/>
    <connection from=":6_2" to="2_6_5" fromLane="0" toLane="0" dir="r" state="M"/>
    <connection from=":6_3" to="2_6_3" fromLane="0" toLane="0" via=":6_5_0" dir="t" state="m"/>
    <connection from=":6_5" to="2_6_3" fromLane="0" toLane="0" dir="t" state="M"/>

</net>
