<?xml version="1.0" encoding="UTF-8"?>

<!-- generated on 07/06/16 15:24:51 by SUMO netconvert Version 0.25.0
<?xml version="1.0" encoding="UTF-8"?>

<configuration xmlns:xsi="http://www.w3.org/2001/XMLSchema-instance" xsi:noNamespaceSchemaLocation="http://sumo.dlr.de/xsd/netconvertConfiguration.xsd">

    <input>
        <node-files value="testScenario2.nod.xml"/>
        <edge-files value="testScenario2.edg.xml"/>
    </input>

    <output>
        <output-file value="testScenario2.net.xml"/>
    </output>

</configuration>
-->

<net version="0.25" xmlns:xsi="http://www.w3.org/2001/XMLSchema-instance" xsi:noNamespaceSchemaLocation="http://sumo.dlr.de/xsd/net_file.xsd">

    <location netOffset="-385281.94,-5817994.50" convBoundary="0.00,0.00,730.46,3336.50" origBoundary="385281.94,5816866.50,386012.40,5821331.00" projParameter="!"/>

    <edge id=":1_0" function="internal">
        <lane id=":1_0_0" index="0" speed="13.89" length="4.82" shape="-1.65,0.04 -0.85,-1.22 -0.04,-1.65 0.80,-1.26 1.65,-0.04"/>
    </edge>
    <edge id=":2_0" function="internal">
        <lane id=":2_0_0" index="0" speed="13.89" length="9.50" shape="21.19,1116.86 20.97,1107.37"/>
        <lane id=":2_0_1" index="1" speed="13.89" length="9.50" shape="24.49,1116.79 24.27,1107.29"/>
    </edge>
    <edge id=":2_2" function="internal">
        <lane id=":2_2_0" index="0" speed="13.89" length="4.49" shape="24.49,1116.79 25.03,1113.97 26.10,1112.75"/>
    </edge>
    <edge id=":2_3" function="internal">
        <lane id=":2_3_0" index="0" speed="13.89" length="2.41" shape="24.49,1116.79 25.29,1115.53 26.10,1115.10"/>
    </edge>
    <edge id=":2_11" function="internal">
        <lane id=":2_11_0" index="0" speed="13.89" length="8.60" shape="26.10,1112.75 26.80,1111.93 29.81,1110.66 34.04,1110.16"/>
    </edge>
    <edge id=":2_12" function="internal">
        <lane id=":2_12_0" index="0" speed="13.89" length="2.41" shape="26.10,1115.10 26.94,1115.49 27.79,1116.71"/>
    </edge>
    <edge id=":2_4" function="internal">
        <lane id=":2_4_0" index="0" speed="13.89" length="5.00" shape="34.12,1113.46 32.77,1113.69 31.81,1114.29 31.25,1115.27 31.09,1116.63"/>
    </edge>
    <edge id=":2_5" function="internal">
        <lane id=":2_5_0" index="0" speed="13.89" length="13.09" shape="34.12,1113.46 29.86,1113.16 26.81,1112.03 24.94,1110.07 24.27,1107.29"/>
    </edge>
    <edge id=":2_6" function="internal">
        <lane id=":2_6_0" index="0" speed="13.89" length="4.82" shape="34.12,1113.46 32.86,1112.66 32.43,1111.85 32.82,1111.01 34.04,1110.16"/>
    </edge>
    <edge id=":2_7" function="internal">
        <lane id=":2_7_0" index="0" speed="13.89" length="5.00" shape="30.87,1107.13 31.09,1108.49 31.70,1109.44 32.68,1110.00 34.04,1110.16"/>
    </edge>
    <edge id=":2_8" function="internal">
        <lane id=":2_8_0" index="0" speed="13.89" length="9.50" shape="30.87,1107.13 31.09,1116.63"/>
        <lane id=":2_8_1" index="1" speed="13.89" length="9.50" shape="27.57,1107.21 27.79,1116.71"/>
    </edge>
    <edge id=":2_10" function="internal">
        <lane id=":2_10_0" index="0" speed="13.89" length="2.41" shape="27.57,1107.21 26.77,1108.47 25.96,1108.90"/>
    </edge>
    <edge id=":2_13" function="internal">
        <lane id=":2_13_0" index="0" speed="13.89" length="2.41" shape="25.96,1108.90 25.12,1108.51 24.27,1107.29"/>
    </edge>
    <edge id=":3_0" function="internal">
        <lane id=":3_0_0" index="0" speed="13.89" length="9.50" shape="47.22,2229.36 47.00,2219.87"/>
        <lane id=":3_0_1" index="1" speed="13.89" length="9.50" shape="50.52,2229.29 50.30,2219.79"/>
    </edge>
    <edge id=":3_2" function="internal">
        <lane id=":3_2_0" index="0" speed="13.89" length="4.49" shape="50.52,2229.29 51.06,2226.47 52.13,2225.25"/>
    </edge>
    <edge id=":3_3" function="internal">
        <lane id=":3_3_0" index="0" speed="13.89" length="2.41" shape="50.52,2229.29 51.32,2228.03 52.13,2227.60"/>
    </edge>
    <edge id=":3_11" function="internal">
        <lane id=":3_11_0" index="0" speed="13.89" length="8.60" shape="52.13,2225.25 52.83,2224.43 55.84,2223.16 60.07,2222.66"/>
    </edge>
    <edge id=":3_12" function="internal">
        <lane id=":3_12_0" index="0" speed="13.89" length="2.41" shape="52.13,2227.60 52.97,2227.99 53.82,2229.21"/>
    </edge>
    <edge id=":3_4" function="internal">
        <lane id=":3_4_0" index="0" speed="13.89" length="5.00" shape="60.15,2225.96 58.80,2226.19 57.84,2226.79 57.28,2227.77 57.12,2229.13"/>
    </edge>
    <edge id=":3_5" function="internal">
        <lane id=":3_5_0" index="0" speed="13.89" length="13.09" shape="60.15,2225.96 55.89,2225.66 52.84,2224.53 50.97,2222.57 50.30,2219.79"/>
    </edge>
    <edge id=":3_6" function="internal">
        <lane id=":3_6_0" index="0" speed="13.89" length="4.82" shape="60.15,2225.96 58.89,2225.16 58.46,2224.35 58.85,2223.51 60.07,2222.66"/>
    </edge>
    <edge id=":3_7" function="internal">
        <lane id=":3_7_0" index="0" speed="13.89" length="5.00" shape="56.90,2219.63 57.12,2220.99 57.73,2221.94 58.71,2222.50 60.07,2222.66"/>
    </edge>
    <edge id=":3_8" function="internal">
        <lane id=":3_8_0" index="0" speed="13.89" length="9.50" shape="56.90,2219.63 57.12,2229.13"/>
        <lane id=":3_8_1" index="1" speed="13.89" length="9.50" shape="53.60,2219.71 53.82,2229.21"/>
    </edge>
    <edge id=":3_10" function="internal">
        <lane id=":3_10_0" index="0" speed="13.89" length="2.41" shape="53.60,2219.71 52.80,2220.97 51.99,2221.40"/>
    </edge>
    <edge id=":3_13" function="internal">
        <lane id=":3_13_0" index="0" speed="13.89" length="2.41" shape="51.99,2221.40 51.15,2221.01 50.30,2219.79"/>
    </edge>
    <edge id=":4_0" function="internal">
        <lane id=":4_0_0" index="0" speed="13.89" length="4.82" shape="79.77,3336.46 78.97,3337.72 78.16,3338.15 77.32,3337.76 76.47,3336.54"/>
    </edge>
    <edge id=":5_0" function="internal">
        <lane id=":5_0_0" index="0" speed="13.89" length="2.58" shape="703.02,1099.29 702.90,1098.59 702.59,1098.10 702.08,1097.81 701.38,1097.73"/>
    </edge>
    <edge id=":5_1" function="internal">
        <lane id=":5_1_0" index="0" speed="13.89" length="2.20" shape="703.02,1099.29 703.81,1098.03 704.44,1097.70"/>
    </edge>
    <edge id=":5_4" function="internal">
        <lane id=":5_4_0" index="0" speed="13.89" length="2.62" shape="704.44,1097.70 704.63,1097.60 705.46,1097.99 706.32,1099.21"/>
    </edge>
    <edge id=":5_2" function="internal">
        <lane id=":5_2_0" index="0" speed="13.89" length="7.90" shape="701.30,1094.43 703.45,1094.68 705.00,1095.57 705.96,1097.08 706.32,1099.21"/>
    </edge>
    <edge id=":5_3" function="internal">
        <lane id=":5_3_0" index="0" speed="13.89" length="2.80" shape="701.30,1094.43 702.56,1095.22 702.99,1096.04 702.82,1096.39"/>
    </edge>
    <edge id=":5_5" function="internal">
        <lane id=":5_5_0" index="0" speed="13.89" length="2.02" shape="702.82,1096.39 702.60,1096.87 701.38,1097.73"/>
    </edge>
    <edge id=":6_0" function="internal">
        <lane id=":6_0_0" index="0" speed="13.89" length="7.90" shape="732.03,2205.21 731.78,2207.36 730.90,2208.92 729.39,2209.87 727.25,2210.23"/>
    </edge>
    <edge id=":6_1" function="internal">
        <lane id=":6_1_0" index="0" speed="13.89" length="2.80" shape="732.03,2205.21 731.24,2206.47 730.42,2206.90 730.07,2206.73"/>
    </edge>
    <edge id=":6_4" function="internal">
        <lane id=":6_4_0" index="0" speed="13.89" length="2.02" shape="730.07,2206.73 729.59,2206.51 728.73,2205.29"/>
    </edge>
    <edge id=":6_2" function="internal">
        <lane id=":6_2_0" index="0" speed="13.89" length="2.58" shape="727.17,2206.93 727.87,2206.81 728.36,2206.50 728.65,2205.99 728.73,2205.29"/>
    </edge>
    <edge id=":6_3" function="internal">
        <lane id=":6_3_0" index="0" speed="13.89" length="2.20" shape="727.17,2206.93 728.43,2207.72 728.76,2208.35"/>
    </edge>
    <edge id=":6_5" function="internal">
        <lane id=":6_5_0" index="0" speed="13.89" length="2.62" shape="728.76,2208.35 728.86,2208.54 728.47,2209.37 727.25,2210.23"/>
    </edge>

    <edge id="1_1_2_1" from="1" to="2" priority="-1">
        <lane id="1_1_2_1_0" index="0" speed="13.89" length="1107.55" shape="4.95,-0.12 30.87,1107.13"/>
        <lane id="1_1_2_1_1" index="1" speed="13.89" length="1107.55" shape="1.65,-0.04 27.57,1107.21"/>
    </edge>
    <edge id="1_2_1_2" from="2" to="1" priority="-1">
        <lane id="1_2_1_2_0" index="0" speed="13.89" length="1107.55" shape="20.97,1107.37 -4.95,0.12"/>
        <lane id="1_2_1_2_1" index="1" speed="13.89" length="1107.55" shape="24.27,1107.29 -1.65,0.04"/>
    </edge>
    <edge id="1_2_3_2" from="2" to="3" priority="-1">
        <lane id="1_2_3_2_0" index="0" speed="13.89" length="1103.30" shape="31.09,1116.63 56.90,2219.63"/>
        <lane id="1_2_3_2_1" index="1" speed="13.89" length="1103.30" shape="27.79,1116.71 53.60,2219.71"/>
    </edge>
    <edge id="1_3_2_3" from="3" to="2" priority="-1">
        <lane id="1_3_2_3_0" index="0" speed="13.89" length="1103.30" shape="47.00,2219.87 21.19,1116.86"/>
        <lane id="1_3_2_3_1" index="1" speed="13.89" length="1103.30" shape="50.30,2219.79 24.49,1116.79"/>
    </edge>
    <edge id="1_3_4_3" from="3" to="4" priority="-1">
        <lane id="1_3_4_3_0" index="0" speed="13.89" length="1107.56" shape="57.12,2229.13 83.07,3336.38"/>
        <lane id="1_3_4_3_1" index="1" speed="13.89" length="1107.56" shape="53.82,2229.21 79.77,3336.46"/>
    </edge>
    <edge id="1_4_3_4" from="4" to="3" priority="-1">
        <lane id="1_4_3_4_0" index="0" speed="13.89" length="1107.56" shape="73.17,3336.62 47.22,2229.36"/>
        <lane id="1_4_3_4_1" index="1" speed="13.89" length="1107.56" shape="76.47,3336.54 50.52,2229.29"/>
    </edge>
    <edge id="2_2_5_2" from="2" to="5" priority="-1">
        <lane id="2_2_5_2_0" index="0" speed="13.89" length="667.45" shape="34.04,1110.16 701.30,1094.43"/>
    </edge>
    <edge id="2_3_6_3" from="3" to="6" priority="-1">
        <lane id="2_3_6_3_0" index="0" speed="13.89" length="667.29" shape="60.07,2222.66 727.17,2206.93"/>
    </edge>
    <edge id="2_5_2_5" from="5" to="2" priority="-1">
        <lane id="2_5_2_5_0" index="0" speed="13.89" length="667.45" shape="701.38,1097.73 34.12,1113.46"/>
    </edge>
    <edge id="2_5_6_5" from="5" to="6" priority="-1">
        <lane id="2_5_6_5_0" index="0" speed="13.89" length="1106.30" shape="706.32,1099.21 732.03,2205.21"/>
    </edge>
    <edge id="2_6_3_6" from="6" to="3" priority="-1">
        <lane id="2_6_3_6_0" index="0" speed="13.89" length="667.29" shape="727.25,2210.23 60.15,2225.96"/>
    </edge>
    <edge id="2_6_5_6" from="6" to="5" priority="-1">
        <lane id="2_6_5_6_0" index="0" speed="13.89" length="1106.30" shape="728.73,2205.29 703.02,1099.29"/>
    </edge>

    <tlLogic id="2" type="static" programID="0" offset="0">
        <phase duration="31" state="GGggrrrGGGg"/>
        <phase duration="4" state="yyggrrryyyg"/>
        <phase duration="6" state="rrGGrrrrrrG"/>
        <phase duration="4" state="rryyrrrrrry"/>
        <phase duration="31" state="rrrrGGgGrrr"/>
        <phase duration="4" state="rrrryyyyrrr"/>
    </tlLogic>

    <junction id="1" type="priority" x="0.00" y="0.00" incLanes="1_2_1_2_0 1_2_1_2_1" intLanes=":1_0_0" shape="0.05,-0.00 6.55,-0.15 -6.55,0.15 -0.05,0.00">
        <request index="0" response="0" foes="0" cont="0"/>
    </junction>
    <junction id="2" type="traffic_light" x="26.03" y="1112.00" incLanes="1_3_2_3_0 1_3_2_3_1 2_5_2_5_0 1_1_2_1_0 1_1_2_1_1"
              intLanes=":2_0_0 :2_0_1 :2_11_0 :2_12_0 :2_4_0 :2_5_0 :2_6_0 :2_7_0 :2_8_0 :2_8_1 :2_13_0" shape="19.59,1116.90 32.69,1116.59 34.15,1115.06 34.00,1108.56 32.47,1107.10 19.37,1107.40">
        <request index="0" response="00000000000" foes="10000100000" cont="0"/>
        <request index="1" response="00000000000" foes="10000100000" cont="0"/>
        <request index="2" response="01110000000" foes="01111100000" cont="1"/>
        <request index="3" response="01100010000" foes="01100010000" cont="1"/>
        <request index="4" response="01100000000" foes="01100001000" cont="0"/>
        <request index="5" response="01100000111" foes="11100000111" cont="0"/>
        <request index="6" response="00010000100" foes="00010000100" cont="0"/>
        <request index="7" response="00000000000" foes="00001000100" cont="0"/>
        <request index="8" response="00000000000" foes="00000111100" cont="0"/>
        <request index="9" response="00000000000" foes="00000111100" cont="0"/>
        <request index="10" response="00000100011" foes="00000100011" cont="1"/>
    </junction>
    <junction id="3" type="priority" x="52.06" y="2224.50" incLanes="1_4_3_4_0 1_4_3_4_1 2_6_3_6_0 1_2_3_2_0 1_2_3_2_1"
              intLanes=":3_0_0 :3_0_1 :3_11_0 :3_12_0 :3_4_0 :3_5_0 :3_6_0 :3_7_0 :3_8_0 :3_8_1 :3_13_0" shape="45.62,2229.40 58.72,2229.09 60.18,2227.56 60.03,2221.06 58.50,2219.60 45.40,2219.90">
        <request index="0" response="00000000000" foes="10000100000" cont="0"/>
        <request index="1" response="00000000000" foes="10000100000" cont="0"/>
        <request index="2" response="01110000000" foes="01111100000" cont="1"/>
        <request index="3" response="01100010000" foes="01100010000" cont="1"/>
        <request index="4" response="01100000000" foes="01100001000" cont="0"/>
        <request index="5" response="01100000111" foes="11100000111" cont="0"/>
        <request index="6" response="00010000100" foes="00010000100" cont="0"/>
        <request index="7" response="00000000000" foes="00001000100" cont="0"/>
        <request index="8" response="00000000000" foes="00000111100" cont="0"/>
        <request index="9" response="00000000000" foes="00000111100" cont="0"/>
        <request index="10" response="00000100011" foes="00000100011" cont="1"/>
    </junction>
    <junction id="4" type="priority" x="78.12" y="3336.50" incLanes="1_3_4_3_0 1_3_4_3_1" intLanes=":4_0_0" shape="78.07,3336.50 71.57,3336.65 84.67,3336.35 78.17,3336.50">
        <request index="0" response="0" foes="0" cont="0"/>
    </junction>
    <junction id="5" type="priority" x="704.59" y="1096.00" incLanes="2_6_5_6_0 2_2_5_2_0" intLanes=":5_0_0 :5_4_0 :5_2_0 :5_5_0" shape="701.42,1099.33 707.91,1099.17 701.26,1092.83 701.42,1099.33">
        <request index="0" response="0000" foes="1000" cont="0"/>
        <request index="1" response="0100" foes="0100" cont="1"/>
        <request index="2" response="0000" foes="0010" cont="0"/>
        <request index="3" response="0001" foes="0001" cont="1"/>
    </junction>
    <junction id="6" type="priority" x="730.46" y="2208.50" incLanes="2_5_6_5_0 2_3_6_3_0" intLanes=":6_0_0 :6_4_0 :6_2_0 :6_5_0" shape="733.63,2205.18 727.14,2205.33 727.29,2211.83">
        <request index="0" response="0000" foes="1000" cont="0"/>
        <request index="1" response="0100" foes="0100" cont="1"/>
        <request index="2" response="0000" foes="0010" cont="0"/>
        <request index="3" response="0001" foes="0001" cont="1"/>
    </junction>

    <junction id=":2_11_0" type="internal" x="26.10" y="1112.75" incLanes=":2_2_0 1_1_2_1_0 1_1_2_1_1" intLanes=":2_5_0 :2_6_0 :2_7_0 :2_8_0 :2_8_1"/>
    <junction id=":2_12_0" type="internal" x="26.10" y="1115.10" incLanes=":2_3_0 1_1_2_1_0 1_1_2_1_1 2_5_2_5_0" intLanes=":2_4_0 :2_8_0 :2_8_1"/>
    <junction id=":2_13_0" type="internal" x="25.96" y="1108.90" incLanes=":2_10_0 1_3_2_3_0 1_3_2_3_1 2_5_2_5_0" intLanes=":2_0_0 :2_0_1 :2_5_0"/>
    <junction id=":3_11_0" type="internal" x="52.13" y="2225.25" incLanes=":3_2_0 1_2_3_2_0 1_2_3_2_1" intLanes=":3_5_0 :3_6_0 :3_7_0 :3_8_0 :3_8_1"/>
    <junction id=":3_12_0" type="internal" x="52.13" y="2227.60" incLanes=":3_3_0 1_2_3_2_0 1_2_3_2_1 2_6_3_6_0" intLanes=":3_4_0 :3_8_0 :3_8_1"/>
    <junction id=":3_13_0" type="internal" x="51.99" y="2221.40" incLanes=":3_10_0 1_4_3_4_0 1_4_3_4_1 2_6_3_6_0" intLanes=":3_0_0 :3_0_1 :3_5_0"/>
    <junction id=":5_4_0" type="internal" x="704.44" y="1097.70" incLanes=":5_1_0 2_2_5_2_0" intLanes=":5_2_0"/>
    <junction id=":5_5_0" type="internal" x="702.82" y="1096.39" incLanes=":5_3_0 2_6_5_6_0" intLanes=":5_0_0"/>
    <junction id=":6_4_0" type="internal" x="730.07" y="2206.73" incLanes=":6_1_0 2_3_6_3_0" intLanes=":6_2_0"/>
    <junction id=":6_5_0" type="internal" x="728.76" y="2208.35" incLanes=":6_3_0 2_5_6_5_0" intLanes=":6_0_0"/>

    <connection from="1_1_2_1" to="2_2_5_2" fromLane="0" toLane="0" via=":2_7_0" tl="2" linkIndex="7" dir="r" state="o"/>
    <connection from="1_1_2_1" to="1_2_3_2" fromLane="0" toLane="0" via=":2_8_0" tl="2" linkIndex="8" dir="s" state="o"/>
    <connection from="1_1_2_1" to="1_2_3_2" fromLane="1" toLane="1" via=":2_8_1" tl="2" linkIndex="9" dir="s" state="o"/>
    <connection from="1_1_2_1" to="1_2_1_2" fromLane="1" toLane="1" via=":2_10_0" tl="2" linkIndex="10" dir="t" state="o"/>
    <connection from="1_2_1_2" to="1_1_2_1" fromLane="1" toLane="1" via=":1_0_0" dir="t" state="M"/>
    <connection from="1_2_3_2" to="2_3_6_3" fromLane="0" toLane="0" via=":3_7_0" dir="r" state="M"/>
    <connection from="1_2_3_2" to="1_3_4_3" fromLane="0" toLane="0" via=":3_8_0" dir="s" state="M"/>
    <connection from="1_2_3_2" to="1_3_4_3" fromLane="1" toLane="1" via=":3_8_1" dir="s" state="M"/>
    <connection from="1_2_3_2" to="1_3_2_3" fromLane="1" toLane="1" via=":3_10_0" dir="t" state="m"/>
    <connection from="1_3_2_3" to="1_2_1_2" fromLane="0" toLane="0" via=":2_0_0" tl="2" linkIndex="0" dir="s" state="o"/>
    <connection from="1_3_2_3" to="1_2_1_2" fromLane="1" toLane="1" via=":2_0_1" tl="2" linkIndex="1" dir="s" state="o"/>
    <connection from="1_3_2_3" to="2_2_5_2" fromLane="1" toLane="0" via=":2_2_0" tl="2" linkIndex="2" dir="l" state="o"/>
    <connection from="1_3_2_3" to="1_2_3_2" fromLane="1" toLane="1" via=":2_3_0" tl="2" linkIndex="3" dir="t" state="o"/>
    <connection from="1_3_4_3" to="1_4_3_4" fromLane="1" toLane="1" via=":4_0_0" dir="t" state="M"/>
    <connection from="1_4_3_4" to="1_3_2_3" fromLane="0" toLane="0" via=":3_0_0" dir="s" state="M"/>
    <connection from="1_4_3_4" to="1_3_2_3" fromLane="1" toLane="1" via=":3_0_1" dir="s" state="M"/>
    <connection from="1_4_3_4" to="2_3_6_3" fromLane="1" toLane="0" via=":3_2_0" dir="l" state="m"/>
    <connection from="1_4_3_4" to="1_3_4_3" fromLane="1" toLane="1" via=":3_3_0" dir="t" state="m"/>
    <connection from="2_2_5_2" to="2_5_6_5" fromLane="0" toLane="0" via=":5_2_0" dir="l" state="M"/>
    <connection from="2_2_5_2" to="2_5_2_5" fromLane="0" toLane="0" via=":5_3_0" dir="t" state="m"/>
    <connection from="2_3_6_3" to="2_6_5_6" fromLane="0" toLane="0" via=":6_2_0" dir="r" state="M"/>
    <connection from="2_3_6_3" to="2_6_3_6" fromLane="0" toLane="0" via=":6_3_0" dir="t" state="m"/>
    <connection from="2_5_2_5" to="1_2_3_2" fromLane="0" toLane="0" via=":2_4_0" dir="r" state="m"/>
    <connection from="2_5_2_5" to="1_2_1_2" fromLane="0" toLane="1" via=":2_5_0" dir="l" state="m"/>
    <connection from="2_5_2_5" to="2_2_5_2" fromLane="0" toLane="0" via=":2_6_0" dir="t" state="m"/>
    <connection from="2_5_6_5" to="2_6_3_6" fromLane="0" toLane="0" via=":6_0_0" dir="l" state="M"/>
    <connection from="2_5_6_5" to="2_6_5_6" fromLane="0" toLane="0" via=":6_1_0" dir="t" state="m"/>
    <connection from="2_6_3_6" to="1_3_4_3" fromLane="0" toLane="0" via=":3_4_0" tl="2" linkIndex="4" dir="r" state="o"/>
    <connection from="2_6_3_6" to="1_3_2_3" fromLane="0" toLane="1" via=":3_5_0" tl="2" linkIndex="5" dir="l" state="o"/>
    <connection from="2_6_3_6" to="2_3_6_3" fromLane="0" toLane="0" via=":3_6_0" tl="2" linkIndex="6" dir="t" state="o"/>
    <connection from="2_6_5_6" to="2_5_2_5" fromLane="0" toLane="0" via=":5_0_0" dir="r" state="M"/>
    <connection from="2_6_5_6" to="2_5_6_5" fromLane="0" toLane="0" via=":5_1_0" dir="t" state="m"/>

    <connection from=":1_0" to="1_1_2_1" fromLane="0" toLane="1" dir="s" state="M"/>
    <connection from=":2_0" to="1_2_1_2" fromLane="0" toLane="0" dir="s" state="M"/>
    <connection from=":2_0" to="1_2_1_2" fromLane="1" toLane="1" dir="s" state="M"/>
    <connection from=":2_2" to="2_2_5_2" fromLane="0" toLane="0" via=":2_11_0" dir="s" state="m"/>
    <connection from=":2_11" to="2_2_5_2" fromLane="0" toLane="0" dir="s" state="M"/>
    <connection from=":2_3" to="1_2_3_2" fromLane="0" toLane="1" via=":2_12_0" dir="s" state="m"/>
    <connection from=":2_12" to="1_2_3_2" fromLane="0" toLane="1" dir="s" state="M"/>
    <connection from=":2_4" to="1_2_3_2" fromLane="0" toLane="0" dir="s" state="M"/>
    <connection from=":2_5" to="1_2_1_2" fromLane="0" toLane="1" dir="s" state="M"/>
    <connection from=":2_6" to="2_2_5_2" fromLane="0" toLane="0" dir="s" state="M"/>
    <connection from=":2_7" to="2_2_5_2" fromLane="0" toLane="0" dir="s" state="M"/>
    <connection from=":2_8" to="1_2_3_2" fromLane="0" toLane="0" dir="s" state="M"/>
    <connection from=":2_8" to="1_2_3_2" fromLane="1" toLane="1" dir="s" state="M"/>
    <connection from=":2_10" to="1_2_1_2" fromLane="0" toLane="1" via=":2_13_0" dir="s" state="m"/>
    <connection from=":2_13" to="1_2_1_2" fromLane="0" toLane="1" dir="s" state="M"/>
    <connection from=":3_0" to="1_3_2_3" fromLane="0" toLane="0" dir="s" state="M"/>
    <connection from=":3_0" to="1_3_2_3" fromLane="1" toLane="1" dir="s" state="M"/>
    <connection from=":3_2" to="2_3_6_3" fromLane="0" toLane="0" via=":3_11_0" dir="s" state="m"/>
    <connection from=":3_11" to="2_3_6_3" fromLane="0" toLane="0" dir="s" state="M"/>
    <connection from=":3_3" to="1_3_4_3" fromLane="0" toLane="1" via=":3_12_0" dir="s" state="m"/>
    <connection from=":3_12" to="1_3_4_3" fromLane="0" toLane="1" dir="s" state="M"/>
    <connection from=":3_4" to="1_3_4_3" fromLane="0" toLane="0" dir="s" state="M"/>
    <connection from=":3_5" to="1_3_2_3" fromLane="0" toLane="1" dir="s" state="M"/>
    <connection from=":3_6" to="2_3_6_3" fromLane="0" toLane="0" dir="s" state="M"/>
    <connection from=":3_7" to="2_3_6_3" fromLane="0" toLane="0" dir="s" state="M"/>
    <connection from=":3_8" to="1_3_4_3" fromLane="0" toLane="0" dir="s" state="M"/>
    <connection from=":3_8" to="1_3_4_3" fromLane="1" toLane="1" dir="s" state="M"/>
    <connection from=":3_10" to="1_3_2_3" fromLane="0" toLane="1" via=":3_13_0" dir="s" state="m"/>
    <connection from=":3_13" to="1_3_2_3" fromLane="0" toLane="1" dir="s" state="M"/>
    <connection from=":4_0" to="1_4_3_4" fromLane="0" toLane="1" dir="s" state="M"/>
    <connection from=":5_0" to="2_5_2_5" fromLane="0" toLane="0" dir="s" state="M"/>
    <connection from=":5_1" to="2_5_6_5" fromLane="0" toLane="0" via=":5_4_0" dir="s" state="m"/>
    <connection from=":5_4" to="2_5_6_5" fromLane="0" toLane="0" dir="s" state="M"/>
    <connection from=":5_2" to="2_5_6_5" fromLane="0" toLane="0" dir="s" state="M"/>
    <connection from=":5_3" to="2_5_2_5" fromLane="0" toLane="0" via=":5_5_0" dir="s" state="m"/>
    <connection from=":5_5" to="2_5_2_5" fromLane="0" toLane="0" dir="s" state="M"/>
    <connection from=":6_0" to="2_6_3_6" fromLane="0" toLane="0" dir="s" state="M"/>
    <connection from=":6_1" to="2_6_5_6" fromLane="0" toLane="0" via=":6_4_0" dir="s" state="m"/>
    <connection from=":6_4" to="2_6_5_6" fromLane="0" toLane="0" dir="s" state="M"/>
    <connection from=":6_2" to="2_6_5_6" fromLane="0" toLane="0" dir="s" state="M"/>
    <connection from=":6_3" to="2_6_3_6" fromLane="0" toLane="0" via=":6_5_0" dir="s" state="m"/>
    <connection from=":6_5" to="2_6_3_6" fromLane="0" toLane="0" dir="s" state="M"/>

</net>
