<?xml version="1.0" encoding="UTF-8"?>

<!-- generated on 2022-11-22 15:40:09 by Eclipse SUMO netedit Version 1.15.0
<configuration xmlns:xsi="http://www.w3.org/2001/XMLSchema-instance" xsi:noNamespaceSchemaLocation="http://sumo.dlr.de/xsd/netconvertConfiguration.xsd">

    <input>
        <sumo-net-file value="C:\Users\scc\Simulation\mosaic\mosaic\test\scenarios\perception-module\sumo\square.net.xml"/>
    </input>

    <output>
        <output-file value="C:\Users\scc\Simulation\mosaic\mosaic\test\scenarios\perception-module\sumo\square.net.xml"/>
    </output>

    <projection>
        <simple-projection value="true"/>
        <proj.utm value="true"/>
        <proj.dhdn value="false"/>
        <proj.plain-geo value="true"/>
    </projection>

    <processing>
        <geometry.min-radius.fix.railways value="false"/>
        <geometry.max-grade.fix value="false"/>
        <offset.disable-normalization value="true"/>
        <lefthand value="0"/>
    </processing>

    <junctions>
        <no-turnarounds value="true"/>
        <junctions.corner-detail value="5"/>
        <junctions.limit-turn-speed value="5.50"/>
        <rectangular-lane-cut value="0"/>
    </junctions>

    <pedestrian>
        <walkingareas value="0"/>
    </pedestrian>

</configuration>
-->

<net version="1.9" junctionCornerDetail="5" limitTurnSpeed="5.50" xmlns:xsi="http://www.w3.org/2001/XMLSchema-instance" xsi:noNamespaceSchemaLocation="http://sumo.dlr.de/xsd/net_file.xsd">

    <location netOffset="0.00,0.00" convBoundary="0.00,1.99,100.00,101.99" origBoundary="-10000000000.00,-10000000000.00,10000000000.00,10000000000.00" projParameter="!"/>

    <edge id=":J0_0" function="internal">
        <lane id=":J0_0_0" index="0" speed="6.08" length="7.74" shape="-1.60,5.19 -1.30,3.09 -0.40,1.59 1.10,0.69 3.20,0.39"/>
    </edge>
    <edge id=":J0_1" function="internal">
        <lane id=":J0_1_0" index="0" speed="3.90" length="2.58" shape="3.20,3.59 2.50,3.69 2.00,3.99 1.70,4.49 1.60,5.19"/>
    </edge>
    <edge id=":J1_0" function="internal">
        <lane id=":J1_0_0" index="0" speed="3.90" length="2.58" shape="98.40,5.19 98.30,4.49 98.00,3.99 97.50,3.69 96.80,3.59"/>
    </edge>
    <edge id=":J1_1" function="internal">
        <lane id=":J1_1_0" index="0" speed="6.08" length="7.74" shape="96.80,0.39 98.90,0.69 100.40,1.59 101.30,3.09 101.60,5.19"/>
    </edge>
    <edge id=":J2_0" function="internal">
        <lane id=":J2_0_0" index="0" speed="6.08" length="7.74" shape="101.60,98.79 101.30,100.89 100.40,102.39 98.90,103.29 96.80,103.59"/>
    </edge>
    <edge id=":J2_1" function="internal">
        <lane id=":J2_1_0" index="0" speed="3.90" length="2.58" shape="96.80,100.39 97.50,100.29 98.00,99.99 98.30,99.49 98.40,98.79"/>
    </edge>
    <edge id=":J3_0" function="internal">
        <lane id=":J3_0_0" index="0" speed="6.08" length="7.74" shape="3.20,103.59 1.10,103.29 -0.40,102.39 -1.30,100.89 -1.60,98.79"/>
    </edge>
    <edge id=":J3_1" function="internal">
        <lane id=":J3_1_0" index="0" speed="3.90" length="2.58" shape="1.60,98.79 1.70,99.49 2.00,99.99 2.50,100.29 3.20,100.39"/>
    </edge>

    <edge id="-E0" from="J1" to="J0" priority="-1">
        <lane id="-E0_0" index="0" speed="13.89" length="93.60" shape="96.80,3.59 3.20,3.59"/>
    </edge>
    <edge id="-E1" from="J2" to="J1" priority="-1">
        <lane id="-E1_0" index="0" speed="13.89" length="93.60" shape="98.40,98.79 98.40,5.19"/>
    </edge>
    <edge id="-E2" from="J3" to="J2" priority="-1">
        <lane id="-E2_0" index="0" speed="13.89" length="93.60" shape="3.20,100.39 96.80,100.39"/>
    </edge>
    <edge id="-E3" from="J0" to="J3" priority="-1">
        <lane id="-E3_0" index="0" speed="13.89" length="93.60" shape="1.60,5.19 1.60,98.79"/>
    </edge>
    <edge id="E0" from="J0" to="J1" priority="-1">
        <lane id="E0_0" index="0" speed="13.89" length="93.60" shape="3.20,0.39 96.80,0.39"/>
    </edge>
    <edge id="E1" from="J1" to="J2" priority="-1">
        <lane id="E1_0" index="0" speed="13.89" length="93.60" shape="101.60,5.19 101.60,98.79"/>
    </edge>
    <edge id="E2" from="J2" to="J3" priority="-1">
        <lane id="E2_0" index="0" speed="13.89" length="93.60" shape="96.80,103.59 3.20,103.59"/>
    </edge>
    <edge id="E3" from="J3" to="J0" priority="-1">
        <lane id="E3_0" index="0" speed="13.89" length="93.60" shape="-1.60,98.79 -1.60,5.19"/>
    </edge>

    <tlLogic id="J1" type="static" programID="0" offset="0">
        <phase duration="42" state="GG"/>
        <phase duration="3"  state="yy"/>
        <phase duration="42" state="rr"/>
        <phase duration="3"  state="yy"/>
    </tlLogic>

    <junction id="J0" type="priority" x="0.00" y="1.99" incLanes="E3_0 -E0_0" intLanes=":J0_0_0 :J0_1_0" shape="-3.20,5.19 3.20,5.19 3.20,-1.21 -0.36,-0.50 -1.60,0.39 -2.49,1.63 -3.02,3.23">
        <request index="0" response="00" foes="00" cont="0"/>
        <request index="1" response="00" foes="00" cont="0"/>
    </junction>
    <junction id="J1" type="traffic_light" x="100.00" y="1.99" incLanes="-E1_0 E0_0" intLanes=":J1_0_0 :J1_1_0" shape="96.80,5.19 103.20,5.19 102.49,1.63 101.60,0.39 100.36,-0.50 98.76,-1.03 96.80,-1.21">
        <request index="0" response="00" foes="00" cont="0"/>
        <request index="1" response="00" foes="00" cont="0"/>
    </junction>
    <junction id="J2" type="priority" x="100.00" y="101.99" incLanes="E1_0 -E2_0" intLanes=":J2_0_0 :J2_1_0" shape="103.20,98.79 96.80,98.79 96.80,105.19 100.36,104.48 101.60,103.59 102.49,102.35 103.02,100.75">
        <request index="0" response="00" foes="00" cont="0"/>
        <request index="1" response="00" foes="00" cont="0"/>
    </junction>
    <junction id="J3" type="priority" x="0.00" y="101.99" incLanes="E2_0 -E3_0" intLanes=":J3_0_0 :J3_1_0" shape="3.20,105.19 3.20,98.79 -3.20,98.79 -2.49,102.35 -1.60,103.59 -0.36,104.48 1.24,105.01">
        <request index="0" response="00" foes="00" cont="0"/>
        <request index="1" response="00" foes="00" cont="0"/>
    </junction>

    <connection from="-E0" to="-E3" fromLane="0" toLane="0" via=":J0_1_0" dir="r" state="M"/>
    <connection from="-E1" to="-E0" fromLane="0" toLane="0" via=":J1_0_0" tl="J1" linkIndex="0" dir="r" state="O"/>
    <connection from="-E2" to="-E1" fromLane="0" toLane="0" via=":J2_1_0" dir="r" state="M"/>
    <connection from="-E3" to="-E2" fromLane="0" toLane="0" via=":J3_1_0" dir="r" state="M"/>
    <connection from="E0" to="E1" fromLane="0" toLane="0" via=":J1_1_0" tl="J1" linkIndex="1" dir="l" state="O"/>
    <connection from="E1" to="E2" fromLane="0" toLane="0" via=":J2_0_0" dir="l" state="M"/>
    <connection from="E2" to="E3" fromLane="0" toLane="0" via=":J3_0_0" dir="l" state="M"/>
    <connection from="E3" to="E0" fromLane="0" toLane="0" via=":J0_0_0" dir="l" state="M"/>

    <connection from=":J0_0" to="E0" fromLane="0" toLane="0" dir="l" state="M"/>
    <connection from=":J0_1" to="-E3" fromLane="0" toLane="0" dir="r" state="M"/>
    <connection from=":J1_0" to="-E0" fromLane="0" toLane="0" dir="r" state="M"/>
    <connection from=":J1_1" to="E1" fromLane="0" toLane="0" dir="l" state="M"/>
    <connection from=":J2_0" to="E2" fromLane="0" toLane="0" dir="l" state="M"/>
    <connection from=":J2_1" to="-E1" fromLane="0" toLane="0" dir="r" state="M"/>
    <connection from=":J3_0" to="E3" fromLane="0" toLane="0" dir="l" state="M"/>
    <connection from=":J3_1" to="-E2" fromLane="0" toLane="0" dir="r" state="M"/>

</net>
