<!--
  ~ Copyright (c) 2022 Fraunhofer FOKUS and others. All rights reserved.
  ~
  ~ See the NOTICE file(s) distributed with this work for additional
  ~ information regarding copyright ownership.
  ~
  ~ This program and the accompanying materials are made available under the
  ~ terms of the Eclipse Public License 2.0 which is available at
  ~ http://www.eclipse.org/legal/epl-2.0
  ~
  ~ SPDX-License-Identifier: EPL-2.0
  ~
  ~ Contact: mosaic@fokus.fraunhofer.de
  -->
<configuration>
    <input>
        <net-file value="square.net.xml"/>
        <route-files value="square.rou.xml"/>
    </input>
    <time>
        <begin value="0"/>
        <end value="10000"/>
    </time>
</configuration>
