<edges>
	<edge id="944079968_1869347236_8740887117" from="1869347236" to="8740887117" numLanes="2" shape="372413.10,4843260.73,0.00 372368.50,4843314.20,0.00 372254.98,4843426.43,0.00 372212.98,4843465.48,0.00 372156.42,4843505.87,0.00" speed="13.89" />
	<edge id="423632259_1870384827_4940692941" from="1870384827" to="4940692941" numLanes="2" shape="372873.17,4843324.55,0.00 372881.54,4843323.34,0.00 372889.97,4843322.77,0.00 372896.77,4843322.84,0.00 372903.52,4843323.69,0.00 372912.04,4843325.91,0.00" speed="13.89" />
	<edge id="4227209_96050956_25182815" from="96050956" to="25182815" numLanes="1" shape="373035.73,4843213.49,0.00 373055.92,4843222.45,0.00 373086.92,4843234.05,0.00" speed="5.56" />
	<edge id="788199638_25394648_374095910" from="25394648" to="374095910" numLanes="1" shape="373216.60,4844822.52,0.00 373209.89,4844818.22,0.00 373202.63,4844814.59,0.00 373190.76,4844808.40,0.00 373159.98,4844796.69,0.00 373112.70,4844782.88,0.00 373080.53,4844770.92,0.00 373053.12,4844759.97,0.00 373033.49,4844749.86,0.00 373009.27,4844736.68,0.00 373005.46,4844734.61,0.00 372975.10,4844716.31,0.00" speed="13.89" />
	<edge id="334368566_3414826895_3414826896" from="3414826895" to="3414826896" numLanes="2" shape="373063.81,4844353.34,0.00 373011.98,4844312.92,0.00 372994.62,4844299.39,0.00" speed="8.33" />
	<edge id="124149678_1382604874_1382605904" from="1382604874" to="1382605904" numLanes="1" shape="372169.05,4844343.46,0.00 372175.75,4844341.58,0.00" speed="8.33" />
	<edge id="690939844_2626888148_6482843214" from="2626888148" to="6482843214" numLanes="1" shape="372058.24,4842800.98,0.00 372049.86,4842781.47,0.00 372044.79,4842770.04,0.00 372042.27,4842764.25,0.00 372033.69,4842742.74,0.00 372030.92,4842736.05,0.00 372023.74,4842717.75,0.00 372015.94,4842698.98,0.00 372010.97,4842690.33,0.00 372005.11,4842680.30,0.00 371997.12,4842670.03,0.00 371985.78,4842661.10,0.00 371969.64,4842654.68,0.00 371961.95,4842651.63,0.00 371934.24,4842641.50,0.00 371925.83,4842636.23,0.00" speed="8.33" />
	<edge id="503783376_4940452736_4940452735" from="4940452736" to="4940452735" numLanes="1" shape="373991.75,4845101.32,0.00 373977.84,4845090.72,0.00 373972.80,4845086.87,0.00 373952.46,4845071.39,0.00" speed="18.06" />
	<edge id="165636046_1868723931_25240089" from="1868723931" to="25240089" numLanes="1" shape="373318.66,4844372.93,0.00 373315.07,4844366.69,0.00 373310.68,4844360.46,0.00 373291.54,4844342.09,0.00 373270.28,4844324.93,0.00 373261.05,4844315.27,0.00 373256.35,4844309.07,0.00 373248.88,4844299.19,0.00 373245.44,4844293.91,0.00 373242.23,4844288.18,0.00 373238.60,4844280.91,0.00 373233.72,4844271.27,0.00 373232.79,4844269.00,0.00 373229.94,4844263.24,0.00" speed="13.89" />
	<edge id="4230117_25185452_25185994" from="25185452" to="25185994" numLanes="1" shape="373645.61,4845018.12,0.00 373642.21,4845010.62,0.00 373639.83,4845001.92,0.00 373636.55,4844980.32,0.00 373617.68,4844949.54,0.00 373613.29,4844946.39,0.00" speed="8.33" />
	<edge id="220547252_2104742674_1704201261" from="2104742674" to="1704201261" numLanes="1" shape="372180.39,4842843.10,0.00 372179.69,4842840.30,0.00 372181.55,4842838.60,0.00 372197.15,4842827.54,0.00 372206.01,4842822.18,0.00" speed="8.33" />
	<edge id="446506601_4437632773_25200954" from="4437632773" to="25200954" numLanes="1" shape="371888.51,4843121.27,0.00 371882.45,4843120.62,0.00 371877.68,4843124.09,0.00" speed="8.33" />
	<edge id="155085113_3241468403_374098943" from="3241468403" to="374098943" numLanes="1" shape="372155.86,4843309.92,0.00 372149.18,4843304.08,0.00 372135.84,4843297.70,0.00 372123.65,4843296.52,0.00 372094.05,4843300.03,0.00 372076.63,4843300.01,0.00 372059.10,4843296.57,0.00 372047.93,4843293.34,0.00 372025.56,4843284.07,0.00 371982.12,4843263.44,0.00" speed="13.89" />
	<edge id="166643408_25195725_6363741444" from="25195725" to="6363741444" numLanes="1" shape="372526.35,4843426.59,0.00 372505.61,4843384.60,0.00 372503.87,4843381.06,0.00 372487.88,4843348.69,0.00 372476.77,4843331.88,0.00 372473.35,4843326.38,0.00" speed="16.67" />
	<edge id="503434383_1696714161_25201047" from="1696714161" to="25201047" numLanes="1" shape="372230.38,4843320.92,0.00 372230.68,4843328.01,0.00" speed="13.89" />
	<edge id="686878369_251721708_821248627" from="251721708" to="821248627" numLanes="1" shape="372513.90,4843893.60,0.00 372525.29,4843899.65,0.00 372535.37,4843902.33,0.00" speed="13.89" />
	<edge id="929856547_29457984_8623016757" from="29457984" to="8623016757" numLanes="1" shape="374058.13,4845146.94,0.00 374070.00,4845153.70,0.00 374097.53,4845168.44,0.00 374112.96,4845176.47,0.00" speed="19.44" />
	<edge id="952419573_1866510573_1866510556" from="1866510573" to="1866510556" numLanes="2" shape="372544.38,4843284.78,0.00 372542.99,4843286.25,0.00 372541.38,4843287.50,0.00 372539.59,4843288.45,0.00 372537.67,4843289.11,0.00" speed="18.06" />
	<edge id="176477342_25239325_21912089" from="25239325" to="21912089" numLanes="2" shape="373224.36,4844044.77,0.00 373228.24,4844047.47,0.00 373229.91,4844050.33,0.00 373246.17,4844078.19,0.00 373249.35,4844083.07,0.00" speed="13.89" />
	<edge id="93732624_1088475112_268125242" from="1088475112" to="268125242" numLanes="1" shape="372986.75,4844467.58,0.00 372967.66,4844429.88,0.00 372966.18,4844427.05,0.00 372973.45,4844418.36,0.00 372958.31,4844404.54,0.00 372923.92,4844366.41,0.00 372905.65,4844349.51,0.00 372904.02,4844348.00,0.00 372897.25,4844341.75,0.00" speed="8.33" />
	<edge id="80378486_1347559127_1866510554" from="1347559127" to="1866510554" numLanes="2" shape="372869.58,4843304.38,0.00 372848.65,4843303.47,0.00 372839.02,4843302.69,0.00 372819.22,4843300.92,0.00 372798.69,4843298.82,0.00 372750.37,4843294.72,0.00 372704.17,4843291.95,0.00 372656.59,4843290.18,0.00 372619.62,4843289.53,0.00 372574.63,4843288.52,0.00 372549.59,4843287.36,0.00 372543.17,4843286.22,0.00 372537.21,4843285.15,0.00 372520.38,4843280.40,0.00" speed="18.06" />
	<edge id="92627414_1074584798_254516782" from="1074584798" to="254516782" numLanes="1" shape="372646.04,4842842.37,0.00 372645.36,4842838.67,0.00 372644.42,4842835.10,0.00 372642.98,4842831.29,0.00 372641.42,4842827.42,0.00 372640.35,4842823.61,0.00 372639.91,4842819.70,0.00" speed="8.33" />
	<edge id="4097656_21912089_21912099" from="21912089" to="21912099" numLanes="1" shape="373249.35,4844083.07,0.00 373242.08,4844088.80,0.00 373237.02,4844093.04,0.00 373232.82,4844098.44,0.00 373230.11,4844102.87,0.00 373228.06,4844107.28,0.00 373226.52,4844114.00,0.00 373226.03,4844119.89,0.00 373226.36,4844125.78,0.00 373228.38,4844130.72,0.00 373230.75,4844136.53,0.00 373231.11,4844140.94,0.00 373229.82,4844144.90,0.00 373227.60,4844147.50,0.00 373223.92,4844149.97,0.00 373185.55,4844168.84,0.00" speed="8.33" />
	<edge id="446506601_4437632778_4437632773" from="4437632778" to="4437632773" numLanes="1" shape="372052.46,4843219.88,0.00 371952.83,4843194.92,0.00 371928.74,4843166.82,0.00 371904.15,4843144.90,0.00 371897.94,4843136.54,0.00 371888.51,4843121.27,0.00" speed="8.33" />
	<edge id="8352246_1347551348_25195517" from="1347551348" to="25195517" numLanes="2" shape="372639.02,4843564.45,0.00 372638.60,4843560.86,0.00 372639.43,4843549.56,0.00 372648.07,4843497.14,0.00" speed="13.89" />
	<edge id="788588441_7372721061_7372721073" from="7372721061" to="7372721073" numLanes="2" shape="372355.16,4844048.57,0.00 372354.41,4844046.97,0.00 372354.23,4844045.22,0.00 372354.64,4844043.50,0.00" speed="8.33" />
	<edge id="503753416_4940249420_1868736596" from="4940249420" to="1868736596" numLanes="2" shape="372398.56,4843231.45,0.00 372405.53,4843237.38,0.00 372412.26,4843243.61,0.00" speed="18.06" />
	<edge id="220547251_4937755899_4937755916" from="4937755899" to="4937755916" numLanes="1" shape="372147.71,4842843.69,0.00 372179.64,4842830.33,0.00 372184.19,4842827.34,0.00 372187.42,4842823.49,0.00 372188.49,4842817.28,0.00 372187.56,4842812.37,0.00 372179.16,4842792.52,0.00 372175.10,4842786.92,0.00 372167.09,4842783.90,0.00 372158.79,4842785.17,0.00 372122.00,4842800.24,0.00 372115.85,4842804.33,0.00 372113.44,4842808.12,0.00 372112.63,4842811.86,0.00 372113.92,4842819.58,0.00 372122.28,4842839.18,0.00 372124.82,4842848.67,0.00 372125.36,4842855.58,0.00" speed="13.89" />
	<edge id="92627427_250259426_279443200" from="250259426" to="279443200" numLanes="1" shape="373409.38,4843964.54,0.00 373395.14,4843956.44,0.00 373380.72,4843948.40,0.00 373367.87,4843942.19,0.00 373355.79,4843936.71,0.00" speed="13.89" />
	<edge id="164338238_252458682_3416090602" from="252458682" to="3416090602" numLanes="2" shape="372919.81,4844189.99,0.00 372913.91,4844187.36,0.00 372781.18,4844124.69,0.00 372777.58,4844123.00,0.00 372772.12,4844122.02,0.00 372764.20,4844123.01,0.00 372752.42,4844129.23,0.00" speed="8.33" />
	<edge id="851792663_3419670594_1770577842" from="3419670594" to="1770577842" numLanes="1" shape="373971.11,4845190.97,0.00 373981.77,4845193.25,0.00 373988.63,4845193.37,0.00 374011.40,4845192.78,0.00 374026.16,4845192.50,0.00 374058.87,4845192.03,0.00 374083.33,4845197.41,0.00 374092.77,4845202.26,0.00 374110.01,4845214.52,0.00 374142.65,4845256.17,0.00" speed="18.06" />
	<edge id="92627411_1699978927_1702431957" from="1699978927" to="1702431957" numLanes="2" shape="371727.34,4842828.03,0.00 371732.17,4842834.63,0.00 371737.85,4842846.25,0.00 371743.18,4842853.89,0.00 371748.55,4842860.60,0.00" speed="13.89" />
	<edge id="177045628_1347559127_1079045455" from="1347559127" to="1079045455" numLanes="2" shape="372869.58,4843304.38,0.00 372835.97,4843297.30,0.00 372721.72,4843274.36,0.00 372661.94,4843249.93,0.00 372616.99,4843221.39,0.00" speed="8.33" />
	<edge id="463430038_4329992817_4329980643" from="4329992817" to="4329980643" numLanes="1" shape="372001.06,4843233.25,0.00 372010.47,4843230.36,0.00 372059.03,4843242.13,0.00" speed="13.89" />
	<edge id="155085114_6482705870_374101670" from="6482705870" to="374101670" numLanes="1" shape="371854.59,4843113.04,0.00 371844.57,4843090.98,0.00 371832.40,4843064.93,0.00 371823.48,4843046.83,0.00 371816.66,4843030.16,0.00 371812.43,4843013.59,0.00 371811.83,4843001.12,0.00" speed="8.33" />
	<edge id="38545597_3423478266_25201002" from="3423478266" to="25201002" numLanes="1" shape="371972.41,4843225.82,0.00 371960.71,4843219.86,0.00" speed="13.89" />
	<edge id="200507331_6482567699_25177730" from="6482567699" to="25177730" numLanes="1" shape="372287.95,4842857.23,0.00 372292.38,4842861.26,0.00 372294.79,4842864.60,0.00 372295.92,4842867.48,0.00 372297.36,4842872.92,0.00" speed="13.89" />
	<edge id="158215184_25177245_1869239786" from="25177245" to="1869239786" numLanes="1" shape="372649.74,4842848.30,0.00 372649.12,4842852.31,0.00 372647.46,4842860.21,0.00 372645.02,4842868.48,0.00 372643.55,4842872.87,0.00 372638.58,4842885.44,0.00 372630.20,4842894.80,0.00 372619.09,4842903.26,0.00 372604.96,4842908.70,0.00 372597.89,4842910.47,0.00 372595.16,4842911.09,0.00 372586.96,4842914.49,0.00" speed="8.33" />
	<edge id="124149692_1382605703_9272803657" from="1382605703" to="9272803657" numLanes="1" shape="371878.00,4844218.79,0.00 371890.33,4844242.01,0.00 371895.74,4844265.17,0.00 371898.00,4844270.76,0.00 371899.83,4844278.63,0.00 371898.17,4844285.66,0.00 371896.13,4844297.77,0.00 371898.49,4844300.66,0.00" speed="13.89" />
	<edge id="4229893_25192169_25192010" from="25192169" to="25192010" numLanes="1" shape="372947.84,4843352.94,0.00 372950.90,4843356.06,0.00 372954.66,4843358.43,0.00 372958.43,4843360.03,0.00 372964.73,4843361.30,0.00" speed="18.06" />
	<edge id="788199637_374095910_1342622563" from="374095910" to="1342622563" numLanes="1" shape="372975.10,4844716.31,0.00 372965.81,4844710.38,0.00" speed="13.89" />
	<edge id="176577460_937988403_25177478" from="937988403" to="25177478" numLanes="1" shape="372415.80,4843192.48,0.00 372358.81,4843146.20,0.00 372268.16,4843078.79,0.00 372249.53,4843064.55,0.00 372245.04,4843061.13,0.00 372244.77,4843056.00,0.00 372244.67,4843054.22,0.00 372248.44,4843048.61,0.00 372292.97,4842999.47,0.00 372297.51,4842994.38,0.00" speed="13.89" />
	<edge id="792884355_25212849_25212882" from="25212849" to="25212882" numLanes="2" shape="373200.79,4844360.34,0.00 373218.93,4844380.71,0.00 373239.65,4844401.44,0.00 373253.34,4844415.84,0.00 373258.01,4844424.12,0.00 373266.73,4844444.92,0.00 373271.65,4844451.71,0.00" speed="16.67" />
	<edge id="573021665_25181806_252539040" from="25181806" to="252539040" numLanes="1" shape="372942.95,4843088.42,0.00 372941.91,4843102.72,0.00 372944.58,4843149.76,0.00 372944.71,4843154.67,0.00 372945.29,4843183.18,0.00" speed="8.33" />
	<edge id="357167418_3625063638_3625063637" from="3625063638" to="3625063637" numLanes="1" shape="372541.84,4844177.13,0.00 372526.51,4844172.99,0.00 372512.04,4844171.21,0.00 372499.85,4844173.65,0.00 372487.14,4844181.34,0.00 372476.43,4844182.19,0.00 372469.63,4844178.92,0.00" speed="8.33" />
	<edge id="155880673_826176664_3297635910" from="826176664" to="3297635910" numLanes="2" shape="372566.71,4843987.61,0.00 372571.95,4843981.44,0.00 372575.52,4843977.23,0.00" speed="8.33" />
	<edge id="165636031_25181935_1800775440" from="25181935" to="1800775440" numLanes="1" shape="373316.00,4843311.27,0.00 373320.58,4843314.47,0.00 373324.16,4843318.13,0.00 373328.93,4843325.16,0.00 373334.34,4843334.16,0.00 373340.64,4843344.77,0.00 373341.46,4843347.02,0.00 373342.20,4843349.53,0.00 373342.42,4843355.07,0.00 373340.24,4843362.17,0.00 373335.18,4843367.13,0.00 373327.17,4843370.46,0.00 373317.52,4843367.96,0.00 373309.97,4843366.42,0.00 373255.29,4843355.33,0.00 373125.36,4843326.50,0.00 373026.45,4843307.41,0.00 373016.45,4843305.95,0.00 372997.96,4843303.53,0.00 372977.10,4843301.91,0.00 372960.07,4843301.44,0.00 372932.07,4843301.92,0.00 372902.55,4843304.06,0.00 372876.42,4843307.96,0.00 372816.23,4843321.65,0.00 372751.94,4843343.53,0.00 372739.49,4843348.23,0.00" speed="8.33" />
	<edge id="201154238_2111070621_2111070553" from="2111070621" to="2111070553" numLanes="1" shape="371800.86,4844016.83,0.00 371796.61,4844013.20,0.00 371791.40,4844012.02,0.00 371786.67,4844014.97,0.00 371782.13,4844024.25,0.00 371767.17,4844033.15,0.00 371739.29,4844044.03,0.00 371706.61,4844052.40,0.00 371682.27,4844067.51,0.00 371660.62,4844087.30,0.00 371653.54,4844101.22,0.00 371645.62,4844138.83,0.00" speed="8.33" />
	<edge id="166399479_25193350_6444966511" from="25193350" to="6444966511" numLanes="2" shape="372860.92,4843700.27,0.00 372860.51,4843712.92,0.00 372860.41,4843716.07,0.00 372860.27,4843720.08,0.00 372860.51,4843726.72,0.00 372860.90,4843737.67,0.00 372861.37,4843743.09,0.00 372862.95,4843761.02,0.00 372863.07,4843762.33,0.00 372865.48,4843777.65,0.00 372865.70,4843779.05,0.00 372868.27,4843790.38,0.00 372869.53,4843795.05,0.00 372871.22,4843801.32,0.00 372874.96,4843812.17,0.00 372877.10,4843817.87,0.00 372880.33,4843825.72,0.00" speed="13.89" />
	<edge id="166009793_1696714161_25201044" from="1696714161" to="25201044" numLanes="1" shape="372230.38,4843320.92,0.00 372230.03,4843304.64,0.00 372232.67,4843292.42,0.00" speed="13.89" />
	<edge id="167625739_25177834_25183872" from="25177834" to="25183872" numLanes="1" shape="372405.08,4843098.23,0.00 372408.11,4843102.25,0.00 372408.70,4843102.81,0.00 372431.31,4843123.30,0.00 372433.90,4843125.66,0.00" speed="8.33" />
	<edge id="503475656_4937755916_4937755917" from="4937755916" to="4937755917" numLanes="1" shape="372125.36,4842855.58,0.00 372124.59,4842859.69,0.00 372123.20,4842863.64,0.00" speed="8.33" />
	<edge id="176576014_252458682_1204288486" from="252458682" to="1204288486" numLanes="1" shape="372919.81,4844189.99,0.00 372905.10,4844204.86,0.00" speed="8.33" />
	<edge id="694608613_4937556547_2104842206" from="4937556547" to="2104842206" numLanes="2" shape="372663.30,4843376.61,0.00 372663.22,4843374.79,0.00 372663.52,4843372.99,0.00 372664.17,4843371.29,0.00 372665.15,4843369.75,0.00 372666.42,4843368.45,0.00 372668.04,4843367.36,0.00" speed="13.89" />
	<edge id="176337647_826162159_826162161" from="826162159" to="826162161" numLanes="1" shape="372320.25,4844088.09,0.00 372314.51,4844149.34,0.00" speed="8.33" />
	<edge id="8352246_263075529_25194413" from="263075529" to="25194413" numLanes="2" shape="372650.53,4843588.73,0.00 372647.37,4843583.72,0.00 372644.14,4843578.21,0.00 372640.76,4843571.80,0.00" speed="13.89" />
	<edge id="94399437_252419723_252420413" from="252419723" to="252420413" numLanes="2" shape="372742.51,4843870.17,0.00 372725.73,4843866.83,0.00 372714.28,4843855.77,0.00 372695.34,4843834.56,0.00 372689.69,4843831.36,0.00 372678.54,4843828.51,0.00 372670.68,4843826.60,0.00 372666.69,4843825.54,0.00 372658.67,4843821.04,0.00 372638.60,4843805.88,0.00 372632.38,4843801.30,0.00 372627.31,4843799.37,0.00 372618.18,4843797.25,0.00 372610.15,4843796.44,0.00 372602.16,4843797.55,0.00 372580.57,4843802.14,0.00 372573.23,4843801.18,0.00 372566.75,4843798.41,0.00 372562.78,4843794.89,0.00 372558.93,4843789.81,0.00 372553.40,4843776.45,0.00 372545.11,4843757.44,0.00 372541.38,4843752.33,0.00 372537.78,4843750.55,0.00 372534.03,4843749.50,0.00 372527.88,4843748.73,0.00 372517.40,4843747.74,0.00" speed="8.33" />
	<edge id="941511001_268167358_8718987789" from="268167358" to="8718987789" numLanes="1" shape="373361.31,4845219.85,0.00 373365.12,4845217.29,0.00" speed="8.33" />
	<edge id="39838824_258072016_258071984" from="258072016" to="258071984" numLanes="2" shape="373136.36,4844242.66,0.00 373126.72,4844229.09,0.00 373117.75,4844220.45,0.00" speed="13.89" />
	<edge id="952420364_1699978918_374101670" from="1699978918" to="374101670" numLanes="2" shape="371816.93,4843001.53,0.00 371814.34,4843001.77,0.00 371811.83,4843001.12,0.00" speed="13.89" />
	<edge id="4229328_25198559_25238728" from="25198559" to="25238728" numLanes="1" shape="372690.62,4844016.57,0.00 372695.30,4843997.43,0.00" speed="16.67" />
	<edge id="92627405_252418705_273246003" from="252418705" to="273246003" numLanes="1" shape="373572.63,4844255.45,0.00 373574.96,4844291.53,0.00 373575.88,4844308.83,0.00 373576.10,4844324.26,0.00 373575.56,4844347.22,0.00 373574.16,4844370.15,0.00 373571.91,4844393.01,0.00 373561.75,4844491.99,0.00 373560.98,4844504.08,0.00" speed="19.44" />
	<edge id="4230007_6485591888_21914666" from="6485591888" to="21914666" numLanes="1" shape="373544.62,4844301.38,0.00 373531.06,4844295.75,0.00 373528.71,4844294.47,0.00 373527.10,4844293.21,0.00 373525.83,4844291.74,0.00 373524.37,4844289.62,0.00 373523.29,4844286.91,0.00 373522.58,4844284.19,0.00 373522.14,4844281.91,0.00 373522.12,4844279.06,0.00 373522.87,4844275.85,0.00 373523.84,4844273.35,0.00 373525.04,4844271.19,0.00 373527.36,4844268.09,0.00 373531.43,4844262.34,0.00 373536.95,4844254.86,0.00 373539.10,4844251.95,0.00 373543.08,4844246.87,0.00 373546.65,4844242.85,0.00 373553.61,4844236.57,0.00 373555.64,4844234.16,0.00 373556.53,4844232.44,0.00" speed="13.89" />
	<edge id="39839529_1737389117_1079045413" from="1737389117" to="1079045413" numLanes="1" shape="372992.88,4843357.39,0.00 372998.48,4843358.76,0.00 373001.96,4843359.70,0.00 373032.06,4843367.63,0.00 373034.21,4843368.94,0.00 373035.67,4843370.43,0.00 373036.41,4843371.44,0.00 373037.32,4843374.26,0.00 373037.74,4843376.95,0.00 373036.47,4843381.96,0.00 373035.96,4843383.54,0.00" speed="8.33" />
	<edge id="4229326_25238669_25198656" from="25238669" to="25198656" numLanes="1" shape="372724.97,4843961.04,0.00 372729.00,4843954.29,0.00 372735.05,4843948.05,0.00" speed="13.89" />
	<edge id="95825516_1110560525_374097295" from="1110560525" to="374097295" numLanes="1" shape="372269.00,4844391.28,0.00 372314.13,4844431.79,0.00" speed="13.89" />
	<edge id="357167409_1675201553_1784107012" from="1675201553" to="1784107012" numLanes="1" shape="372209.06,4843739.02,0.00 372202.03,4843716.95,0.00 372191.61,4843688.29,0.00 372182.39,4843663.18,0.00 372176.45,4843648.60,0.00" speed="13.89" />
	<edge id="731585432_25177167_6851350853" from="25177167" to="6851350853" numLanes="2" shape="372307.39,4843156.64,0.00 372342.08,4843184.69,0.00 372368.22,4843200.92,0.00 372388.76,4843213.89,0.00" speed="18.06" />
	<edge id="177045626_25199254_25198803" from="25199254" to="25198803" numLanes="1" shape="372578.83,4843898.31,0.00 372586.73,4843901.07,0.00 372589.93,4843903.73,0.00 372595.01,4843909.98,0.00" speed="13.89" />
	<edge id="176333307_21918402_21918450" from="21918402" to="21918450" numLanes="1" shape="373466.04,4844589.84,0.00 373479.33,4844617.36,0.00 373485.05,4844630.01,0.00 373490.38,4844643.03,0.00 373501.23,4844672.83,0.00 373523.02,4844733.22,0.00 373524.68,4844738.20,0.00" speed="13.89" />
	<edge id="503434401_1712696757_25193617" from="1712696757" to="25193617" numLanes="2" shape="372721.90,4843355.10,0.00 372724.25,4843360.93,0.00 372725.29,4843362.55,0.00 372726.80,4843363.80,0.00 372729.21,4843364.64,0.00 372733.42,4843365.08,0.00" speed="8.33" />
	<edge id="952419569_1866510534_6340759098" from="1866510534" to="6340759098" numLanes="2" shape="372522.82,4843281.24,0.00 372522.31,4843279.37,0.00 372522.09,4843277.44,0.00 372522.18,4843275.51,0.00 372522.57,4843273.60,0.00 372523.38,4843271.51,0.00 372524.56,4843269.60,0.00" speed="18.06" />
	<edge id="166009792_21917586_252458631" from="21917586" to="252458631" numLanes="1" shape="373082.03,4844191.85,0.00 373079.06,4844190.05,0.00 373065.77,4844182.03,0.00 373024.09,4844165.72,0.00 373009.85,4844159.81,0.00 373002.07,4844156.43,0.00" speed="13.89" />
	<edge id="155085125_2110366494_2110366462" from="2110366494" to="2110366462" numLanes="1" shape="371726.07,4844547.60,0.00 371730.59,4844487.76,0.00 371737.89,4844456.27,0.00" speed="8.33" />
	<edge id="176510129_1870233792_1870233795" from="1870233792" to="1870233795" numLanes="2" shape="372695.25,4844033.56,0.00 372694.19,4844026.86,0.00 372694.36,4844024.27,0.00 372696.03,4844021.66,0.00 372698.38,4844020.54,0.00 372700.55,4844020.73,0.00 372703.98,4844022.73,0.00 372705.59,4844026.20,0.00" speed="13.89" />
	<edge id="200499288_267985353_6485591888" from="267985353" to="6485591888" numLanes="2" shape="373559.77,4844344.12,0.00 373558.10,4844337.38,0.00 373556.79,4844327.19,0.00 373556.52,4844322.45,0.00 373555.98,4844318.93,0.00 373555.01,4844314.96,0.00 373552.57,4844310.47,0.00 373549.73,4844307.04,0.00 373544.62,4844301.38,0.00" speed="8.33" />
	<edge id="503783375_21919238_4940452734" from="21919238" to="4940452734" numLanes="1" shape="373716.34,4844887.41,0.00 373723.92,4844893.96,0.00" speed="19.44" />
	<edge id="176337647_826162159_826162153" from="826162159" to="826162153" numLanes="1" shape="372320.25,4844088.09,0.00 372325.11,4844086.91,0.00 372350.92,4844088.60,0.00 372369.30,4844089.66,0.00" speed="8.33" />
	<edge id="788631384_1868767798_3625077640" from="1868767798" to="3625077640" numLanes="1" shape="373351.48,4844962.53,0.00 373348.74,4844970.31,0.00 373340.11,4844980.28,0.00 373331.56,4844985.72,0.00 373324.55,4844990.18,0.00 373319.51,4844996.89,0.00 373316.71,4845004.44,0.00 373316.19,4845013.94,0.00 373317.30,4845022.99,0.00 373324.74,4845033.48,0.00 373332.40,4845039.89,0.00 373342.95,4845042.71,0.00 373356.90,4845041.04,0.00 373383.56,4845025.97,0.00 373385.62,4845024.80,0.00 373399.63,4845013.65,0.00 373416.45,4845001.66,0.00 373426.66,4844998.88,0.00 373429.85,4844998.02,0.00 373432.82,4844997.21,0.00 373458.80,4844991.56,0.00 373476.02,4844981.98,0.00 373486.97,4844976.97,0.00 373496.15,4844977.38,0.00 373503.40,4844981.81,0.00 373509.13,4844992.59,0.00 373514.45,4845007.01,0.00 373530.99,4845040.56,0.00 373541.46,4845061.78,0.00 373543.22,4845073.58,0.00 373540.50,4845085.46,0.00 373536.00,4845095.73,0.00 373533.13,4845099.32,0.00 373525.37,4845109.02,0.00 373508.72,4845129.85,0.00 373504.31,4845138.16,0.00 373500.68,4845148.52,0.00 373499.64,4845157.22,0.00 373501.65,4845185.44,0.00 373508.19,4845243.19,0.00 373507.62,4845254.27,0.00 373504.99,4845264.03,0.00 373499.98,4845272.45,0.00 373491.99,4845278.81,0.00 373449.63,4845300.69,0.00 373442.56,4845306.32,0.00 373439.91,4845309.92,0.00 373434.77,4845316.89,0.00 373427.41,4845333.64,0.00 373423.55,4845344.75,0.00 373423.39,4845349.90,0.00 373423.28,4845356.11,0.00 373429.10,4845367.23,0.00 373441.08,4845378.22,0.00 373452.11,4845382.15,0.00 373482.50,4845383.32,0.00 373495.39,4845386.75,0.00 373513.05,4845394.73,0.00 373521.36,4845395.76,0.00 373528.58,4845393.21,0.00 373539.16,4845386.34,0.00 373554.61,4845378.82,0.00 373622.41,4845357.94,0.00 373674.90,4845341.13,0.00 373682.99,4845340.22,0.00 373697.46,4845339.49,0.00 373707.97,4845337.92,0.00 373730.05,4845330.88,0.00 373745.82,4845329.68,0.00 373758.71,4845332.85,0.00 373779.26,4845341.59,0.00 373798.54,4845356.05,0.00 373816.76,4845374.89,0.00 373823.88,4845388.22,0.00 373828.94,4845401.81,0.00 373830.02,4845410.19,0.00 373830.72,4845442.66,0.00 373830.75,4845445.53,0.00 373830.94,4845458.82,0.00 373835.67,4845473.87,0.00 373844.23,4845489.94,0.00 373853.83,4845501.97,0.00 373860.28,4845508.75,0.00 373871.70,4845514.77,0.00 373886.07,4845519.61,0.00 373897.59,4845526.73,0.00 373904.18,4845536.56,0.00 373905.41,4845546.86,0.00 373901.31,4845563.15,0.00 373873.47,4845642.40,0.00 373870.61,4845654.12,0.00 373869.91,4845657.02,0.00 373867.74,4845665.95,0.00 373868.24,4845670.84,0.00" speed="16.67" />
	<edge id="4230105_1417930881_1868736651" from="1417930881" to="1868736651" numLanes="1" shape="373877.54,4845169.38,0.00 373876.15,4845166.09,0.00 373874.12,4845163.55,0.00 373824.87,4845108.46,0.00 373821.92,4845105.16,0.00 373801.10,4845085.01,0.00 373794.55,4845081.36,0.00 373788.43,4845079.07,0.00 373780.34,4845077.18,0.00 373776.56,4845075.11,0.00" speed="8.33" />
	<edge id="164338237_2993586392_3625063630" from="2993586392" to="3625063630" numLanes="2" shape="372681.99,4844157.36,0.00 372578.35,4844176.55,0.00 372565.80,4844160.99,0.00 372561.94,4844158.04,0.00 372524.41,4844150.90,0.00 372501.43,4844150.99,0.00 372487.45,4844151.96,0.00 372466.04,4844155.04,0.00" speed="8.33" />
	<edge id="128273234_1417930886_2750761255" from="1417930886" to="2750761255" numLanes="1" shape="373786.95,4845181.88,0.00 373806.12,4845190.86,0.00 373834.74,4845204.92,0.00 373842.61,4845209.12,0.00 373845.40,4845210.76,0.00 373846.76,4845211.88,0.00 373847.82,4845213.10,0.00" speed="8.33" />
	<edge id="120062663_1347117299_1870233784" from="1347117299" to="1870233784" numLanes="2" shape="372646.12,4843695.10,0.00 372629.90,4843670.97,0.00 372615.96,4843645.66,0.00 372611.54,4843625.67,0.00 372610.45,4843619.06,0.00" speed="18.06" />
	<edge id="166558481_25191904_25192169" from="25191904" to="25192169" numLanes="2" shape="372921.30,4843328.48,0.00 372935.84,4843336.74,0.00 372938.89,4843339.91,0.00 372943.09,4843344.29,0.00 372947.84,4843352.94,0.00" speed="13.89" />
	<edge id="159170458_25195773_25195725" from="25195773" to="25195725" numLanes="1" shape="372534.72,4843576.81,0.00 372535.23,4843569.66,0.00 372535.75,4843562.53,0.00 372551.76,4843520.38,0.00 372555.06,4843509.21,0.00 372555.72,4843500.00,0.00 372554.36,4843488.41,0.00 372548.46,4843474.61,0.00 372547.77,4843473.01,0.00 372529.77,4843434.22,0.00 372526.35,4843426.59,0.00" speed="16.67" />
	<edge id="507581429_4970587864_4970587861" from="4970587864" to="4970587861" numLanes="3" shape="373209.06,4844355.02,0.00 373203.33,4844346.65,0.00" speed="13.89" />
	<edge id="155881404_826168997_8733320319" from="826168997" to="8733320319" numLanes="1" shape="372504.09,4844063.22,0.00 372491.17,4844070.76,0.00" speed="8.33" />
	<edge id="155085125_2111071121_1382605117" from="2111071121" to="1382605117" numLanes="1" shape="371804.55,4844055.47,0.00 371810.22,4844050.13,0.00 371813.87,4844030.37,0.00 371818.94,4844007.40,0.00 371855.77,4843926.91,0.00 371915.31,4843807.87,0.00 371932.23,4843752.77,0.00 371928.02,4843631.29,0.00 371929.37,4843619.00,0.00 371941.16,4843595.76,0.00 371951.68,4843570.59,0.00 371957.39,4843506.78,0.00 371958.50,4843463.90,0.00 371959.34,4843448.31,0.00 371956.12,4843437.46,0.00 371958.48,4843432.54,0.00 371964.28,4843431.34,0.00 371969.03,4843434.87,0.00 371972.12,4843454.67,0.00 371976.56,4843483.80,0.00 371981.74,4843518.41,0.00 371990.94,4843587.54,0.00 371987.02,4843597.44,0.00 371980.91,4843605.21,0.00 371981.02,4843610.65,0.00 371985.72,4843612.90,0.00 371994.40,4843605.15,0.00 372007.99,4843579.02,0.00 372009.31,4843572.89,0.00 372012.21,4843559.38,0.00 372016.26,4843523.69,0.00 372022.53,4843496.15,0.00 372023.88,4843493.44,0.00" speed="8.33" />
	<edge id="165597363_268167149_268167164" from="268167149" to="268167164" numLanes="2" shape="373187.25,4844647.61,0.00 373164.46,4844632.68,0.00 373143.40,4844619.91,0.00 373139.90,4844617.79,0.00 373120.84,4844604.83,0.00 373114.99,4844600.84,0.00 373109.55,4844599.15,0.00 373085.42,4844591.62,0.00 373059.88,4844572.54,0.00 373041.14,4844557.73,0.00 373021.51,4844544.40,0.00 373003.44,4844528.42,0.00 372993.66,4844517.32,0.00 372982.48,4844502.26,0.00 372973.06,4844491.36,0.00 372966.72,4844488.01,0.00 372959.46,4844485.60,0.00 372950.86,4844485.07,0.00 372940.61,4844486.85,0.00 372934.17,4844488.47,0.00 372922.08,4844491.76,0.00" speed="8.33" />
	<edge id="952420363_1699978936_25200747" from="1699978936" to="25200747" numLanes="2" shape="371820.55,4842989.34,0.00 371821.91,4842991.49,0.00" speed="13.89" />
	<edge id="166399501_1736930370_1737114648" from="1736930370" to="1737114648" numLanes="1" shape="373478.75,4844317.98,0.00 373480.74,4844318.67,0.00 373484.26,4844318.92,0.00" speed="13.89" />
	<edge id="164379724_1659514871_1659514813" from="1659514871" to="1659514813" numLanes="2" shape="372764.63,4844310.13,0.00 372764.91,4844313.22,0.00 372763.29,4844315.55,0.00 372761.24,4844316.73,0.00 372756.93,4844316.30,0.00" speed="8.33" />