<?xml version="1.0" encoding="UTF-8"?>

<!-- generated on Mon Nov 29 15:36:18 2021 by Eclipse SUMO netconvert Version 1.8.0
<configuration xmlns:xsi="http://www.w3.org/2001/XMLSchema-instance" xsi:noNamespaceSchemaLocation="http://sumo.dlr.de/xsd/netconvertConfiguration.xsd">

    <input>
        <node-files value="/home/mosaic/mosaic/bundle/src/assembly/resources/scenarios/MonacoV2/sumo/MonacoV2.nod.xml"/>
        <edge-files value="/home/mosaic/mosaic/bundle/src/assembly/resources/scenarios/MonacoV2/sumo/MonacoV2.edg.xml"/>
        <connection-files value="/home/mosaic/mosaic/bundle/src/assembly/resources/scenarios/MonacoV2/sumo/MonacoV2.con.xml"/>
    </input>

    <output>
        <output-file value="/home/mosaic/mosaic/bundle/src/assembly/resources/scenarios/MonacoV2/sumo/MonacoV2.net.xml"/>
    </output>

    <report>
        <aggregate-warnings value="5"/>
    </report>

</configuration>
-->

<net version="1.6" junctionCornerDetail="5" limitTurnSpeed="5.50" xmlns:xsi="http://www.w3.org/2001/XMLSchema-instance" xsi:noNamespaceSchemaLocation="http://sumo.dlr.de/xsd/net_file.xsd">

    <location netOffset="-371582.33,-4842510.01" convBoundary="0.00,0.00,2712.14,3160.83" origBoundary="371582.33,4842510.01,374294.47,4845670.84" projParameter="!"/>

    <edge id=":1074584632_0" function="internal">
        <lane id=":1074584632_0_0" index="0" speed="13.89" length="1.16" shape="1084.41,848.97 1083.65,848.30"/>
        <lane id=":1074584632_0_1" index="1" speed="13.89" length="1.16" shape="1082.34,851.41 1081.36,850.54"/>
    </edge>
    <edge id=":1074584647_0" function="internal">
        <lane id=":1074584647_0_0" index="0" speed="6.99" length="9.22" shape="419.54,530.81 417.66,529.47 415.64,528.99 413.48,529.40 411.17,530.67"/>
    </edge>
    <edge id=":1074584647_1" function="internal">
        <lane id=":1074584647_1_0" index="0" speed="13.89" length="9.98" shape="417.54,519.17 418.20,522.07 418.65,524.13 419.50,525.95 421.38,528.14"/>
    </edge>
    <edge id=":1074584647_2" function="internal">
        <lane id=":1074584647_2_0" index="0" speed="9.21" length="13.32" shape="417.54,519.17 417.74,522.05 416.75,524.92 414.56,527.80 411.17,530.67"/>
        <lane id=":1074584647_2_1" index="1" speed="7.47" length="13.32" shape="414.11,518.77 414.54,522.19 413.73,524.90 411.68,526.88 408.39,528.14"/>
    </edge>
    <edge id=":1074584672_0" function="internal">
        <lane id=":1074584672_0_0" index="0" speed="9.82" length="9.44" shape="567.62,464.03 565.69,463.19 563.52,462.82 561.11,462.93 558.46,463.51"/>
    </edge>
    <edge id=":1074584672_1" function="internal">
        <lane id=":1074584672_1_0" index="0" speed="7.29" length="9.32" shape="566.47,453.17 566.05,455.74 566.38,457.95 567.45,459.80 569.26,461.28"/>
    </edge>
    <edge id=":1074584672_2" function="internal">
        <lane id=":1074584672_2_0" index="0" speed="10.26" length="13.04" shape="566.47,453.17 565.03,457.08 563.22,460.11 561.03,462.25 558.46,463.51"/>
        <lane id=":1074584672_2_1" index="1" speed="8.26" length="13.04" shape="563.44,451.22 563.18,454.57 562.01,457.25 559.94,459.27 556.95,460.62"/>
    </edge>
    <edge id=":1074584689_0" function="internal">
        <lane id=":1074584689_0_0" index="0" speed="7.04" length="4.15" shape="399.71,506.83 400.52,507.76 401.15,508.39 401.90,508.76 403.08,508.94"/>
    </edge>
    <edge id=":1074584689_1" function="internal">
        <lane id=":1074584689_1_0" index="0" speed="7.01" length="7.31" shape="395.99,515.45 396.94,513.02 397.41,511.05 397.40,509.54 396.90,508.49"/>
    </edge>
    <edge id=":1074584689_2" function="internal">
        <lane id=":1074584689_2_0" index="0" speed="7.96" length="11.09" shape="395.99,515.45 397.57,512.51 399.28,510.44 401.11,509.25 403.08,508.94"/>
        <lane id=":1074584689_2_1" index="1" speed="8.59" length="11.09" shape="398.45,517.79 400.04,515.29 402.21,513.58 404.96,512.64 408.31,512.48"/>
    </edge>
    <edge id=":1074584736_0" function="internal">
        <lane id=":1074584736_0_0" index="0" speed="5.97" length="8.25" shape="408.13,531.49 405.28,532.37 403.42,533.47 402.56,534.79 402.70,536.32"/>
    </edge>
    <edge id=":1074584736_1" function="internal">
        <lane id=":1074584736_1_0" index="0" speed="9.26" length="12.35" shape="408.13,531.49 404.97,531.76 402.02,531.06 399.29,529.38 396.78,526.73"/>
        <lane id=":1074584736_1_1" index="1" speed="7.50" length="12.35" shape="408.20,528.19 404.78,528.57 402.06,527.98 400.05,526.41 398.75,523.85"/>
    </edge>
    <edge id=":1074584736_3" function="internal">
        <lane id=":1074584736_3_0" index="0" speed="11.76" length="8.86" shape="399.37,534.93 399.28,532.32 399.01,530.50 398.27,528.85 396.78,526.73"/>
    </edge>
    <edge id=":1074584775_0" function="internal">
        <lane id=":1074584775_0_0" index="0" speed="8.33" length="14.87" shape="878.14,543.19 888.89,553.51"/>
        <lane id=":1074584775_0_1" index="1" speed="8.33" length="14.87" shape="875.94,545.51 886.64,555.79"/>
    </edge>
    <edge id=":1074584775_2" function="internal">
        <lane id=":1074584775_2_0" index="0" speed="7.44" length="5.07" shape="876.84,555.46 879.18,551.71 879.75,551.39"/>
    </edge>
    <edge id=":1074584775_3" function="internal">
        <lane id=":1074584775_3_0" index="0" speed="5.49" length="2.59" shape="880.36,555.40 881.42,553.90 882.13,553.68"/>
    </edge>
    <edge id=":1074584775_4" function="internal">
        <lane id=":1074584775_4_0" index="0" speed="7.44" length="10.46" shape="879.75,551.39 881.97,550.13 885.21,550.73 888.89,553.51"/>
    </edge>
    <edge id=":1074584775_5" function="internal">
        <lane id=":1074584775_5_0" index="0" speed="5.49" length="5.25" shape="882.13,553.68 882.82,553.46 884.56,554.09 886.64,555.79"/>
    </edge>
    <edge id=":1074584798_0" function="internal">
        <lane id=":1074584798_0_0" index="0" speed="8.33" length="8.02" shape="1062.20,333.95 1062.01,331.58 1061.74,329.98 1061.33,328.40 1060.70,326.10"/>
    </edge>
    <edge id=":1074584798_1" function="internal">
        <lane id=":1074584798_1_0" index="0" speed="7.58" length="8.22" shape="1062.20,333.95 1062.30,331.63 1062.87,329.68 1063.94,328.10 1065.49,326.90"/>
    </edge>
    <edge id=":1074584855_0" function="internal">
        <lane id=":1074584855_0_0" index="0" speed="13.89" length="0.49" shape="607.72,693.02 607.59,692.97 607.50,692.93 607.41,692.89 607.28,692.82"/>
    </edge>
    <edge id=":1074584855_1" function="internal">
        <lane id=":1074584855_1_0" index="0" speed="13.89" length="0.16" shape="608.77,689.99 608.82,690.01 608.85,690.03 608.88,690.04 608.92,690.06"/>
    </edge>
    <edge id=":1074584878_0" function="internal">
        <lane id=":1074584878_0_0" index="0" speed="11.11" length="10.18" shape="1082.42,333.03 1079.56,333.57 1077.77,334.57 1076.24,336.12 1074.17,338.35"/>
    </edge>
    <edge id=":1074584878_1" function="internal">
        <lane id=":1074584878_1_0" index="0" speed="7.52" length="7.74" shape="1074.53,327.74 1075.64,328.87 1077.19,329.61 1079.17,329.95 1081.60,329.89"/>
    </edge>
    <edge id=":1074584878_2" function="internal">
        <lane id=":1074584878_2_0" index="0" speed="7.86" length="11.64" shape="1074.53,327.74 1076.05,330.72 1076.50,333.48 1075.87,336.02 1074.17,338.35"/>
    </edge>
    <edge id=":1074584934_0" function="internal">
        <lane id=":1074584934_0_0" index="0" speed="8.33" length="0.30" shape="1312.51,281.09 1312.27,280.94"/>
        <lane id=":1074584934_0_1" index="1" speed="8.33" length="0.30" shape="1314.22,278.38 1313.95,278.22"/>
    </edge>
    <edge id=":1074585009_0" function="internal">
        <lane id=":1074585009_0_0" index="0" speed="13.89" length="3.01" shape="1327.08,955.57 1326.70,956.37 1326.44,956.93 1326.21,957.50 1325.93,958.34"/>
        <lane id=":1074585009_0_1" index="1" speed="13.89" length="3.01" shape="1324.00,954.59 1323.62,955.40 1323.37,955.96 1323.16,956.53 1322.88,957.38"/>
    </edge>
    <edge id=":1074585009_2" function="internal">
        <lane id=":1074585009_2_0" index="0" speed="15.28" length="2.99" shape="1326.83,955.49 1325.93,958.34"/>
        <lane id=":1074585009_2_1" index="1" speed="15.28" length="2.99" shape="1323.78,954.52 1322.88,957.38"/>
    </edge>
    <edge id=":1074585030_0" function="internal">
        <lane id=":1074585030_0_0" index="0" speed="10.06" length="8.66" shape="406.53,504.44 407.43,506.81 408.38,508.32 409.77,509.46 411.99,510.72"/>
    </edge>
    <edge id=":1074585030_1" function="internal">
        <lane id=":1074585030_1_0" index="0" speed="4.16" length="3.98" shape="403.28,508.95 403.82,508.77 404.04,508.13 403.93,507.02 403.50,505.46"/>
    </edge>
    <edge id=":1074585030_2" function="internal">
        <lane id=":1074585030_2_0" index="0" speed="13.89" length="5.65" shape="403.28,508.95 405.96,509.05 407.83,509.15 409.60,509.60 411.99,510.72"/>
        <lane id=":1074585030_2_1" index="1" speed="8.91" length="5.65" shape="408.50,512.49 409.14,512.61 409.54,512.85 409.91,513.16 410.47,513.54"/>
    </edge>
    <edge id=":1074585031_0" function="internal">
        <lane id=":1074585031_0_0" index="0" speed="10.11" length="9.62" shape="550.51,470.28 549.94,468.13 548.88,466.11 547.33,464.24 545.28,462.51"/>
    </edge>
    <edge id=":1074585031_1" function="internal">
        <lane id=":1074585031_1_0" index="0" speed="12.11" length="13.97" shape="553.68,469.83 552.86,466.97 551.26,464.18 548.85,461.47 545.65,458.82"/>
    </edge>
    <edge id=":1074585031_2" function="internal">
        <lane id=":1074585031_2_0" index="0" speed="10.81" length="12.51" shape="558.14,463.60 554.31,464.43 550.90,464.52 547.89,463.88 545.28,462.51"/>
        <lane id=":1074585031_2_1" index="1" speed="10.14" length="12.51" shape="556.76,460.67 553.79,461.23 550.95,461.11 548.23,460.31 545.65,458.82"/>
    </edge>
    <edge id=":1079045330_0" function="internal">
        <lane id=":1079045330_0_0" index="0" speed="18.06" length="0.30" shape="1387.31,812.92 1387.03,812.88"/>
        <lane id=":1079045330_0_1" index="1" speed="18.06" length="0.30" shape="1387.74,809.75 1387.44,809.71"/>
    </edge>
    <edge id=":1079045346_0" function="internal">
        <lane id=":1079045346_0_0" index="0" speed="13.89" length="10.39" shape="1035.45,816.35 1038.21,817.48 1040.50,817.62 1042.81,817.80 1045.67,819.10"/>
        <lane id=":1079045346_0_1" index="1" speed="13.89" length="10.39" shape="1035.45,816.35 1043.89,821.76"/>
    </edge>
    <edge id=":1079045346_2" function="internal">
        <lane id=":1079045346_2_0" index="0" speed="3.65" length="2.55" shape="1035.45,816.35 1036.04,817.66 1035.95,818.55 1035.77,818.66"/>
    </edge>
    <edge id=":1079045346_4" function="internal">
        <lane id=":1079045346_4_0" index="0" speed="3.65" length="2.12" shape="1035.77,818.66 1035.19,819.02 1033.75,819.06"/>
    </edge>
    <edge id=":1079045346_3" function="internal">
        <lane id=":1079045346_3_0" index="0" speed="6.43" length="8.33" shape="1035.78,826.19 1036.53,824.10 1036.44,822.21 1035.51,820.53 1033.75,819.06"/>
    </edge>
    <edge id=":1079045383_0" function="internal">
        <lane id=":1079045383_0_0" index="0" speed="13.89" length="8.79" shape="1004.23,802.93 996.30,799.13"/>
    </edge>
    <edge id=":1079045383_1" function="internal">
        <lane id=":1079045383_1_0" index="0" speed="3.65" length="2.61" shape="1004.23,802.93 1003.49,801.69 1003.47,800.80 1003.69,800.63"/>
    </edge>
    <edge id=":1079045383_5" function="internal">
        <lane id=":1079045383_5_0" index="0" speed="3.65" length="2.06" shape="1003.69,800.63 1004.18,800.25 1005.61,800.05"/>
    </edge>
    <edge id=":1079045383_2" function="internal">
        <lane id=":1079045383_2_0" index="0" speed="13.89" length="8.60" shape="999.02,793.34 1001.34,794.38 1002.99,794.98 1004.69,795.41 1007.18,795.98"/>
    </edge>
    <edge id=":1079045383_3" function="internal">
        <lane id=":1079045383_3_0" index="0" speed="13.89" length="9.58" shape="999.02,793.34 1001.25,794.94 1002.32,796.68 1003.39,798.42 1005.61,800.05"/>
    </edge>
    <edge id=":1079045383_4" function="internal">
        <lane id=":1079045383_4_0" index="0" speed="3.65" length="2.34" shape="997.66,796.23 998.41,797.47 998.43,798.36"/>
    </edge>
    <edge id=":1079045383_6" function="internal">
        <lane id=":1079045383_6_0" index="0" speed="3.65" length="2.34" shape="998.43,798.36 997.73,798.92 996.30,799.13"/>
    </edge>
    <edge id=":1079045413_0" function="internal">
        <lane id=":1079045413_0_0" index="0" speed="8.33" length="0.10" shape="1455.15,874.02 1455.12,874.11"/>
    </edge>
    <edge id=":1079045413_1" function="internal">
        <lane id=":1079045413_1_0" index="0" speed="8.33" length="0.10" shape="1452.14,872.95 1452.11,873.04"/>
    </edge>
    <edge id=":1079045416_0" function="internal">
        <lane id=":1079045416_0_0" index="0" speed="18.06" length="0.24" shape="1409.84,834.65 1409.87,834.46"/>
        <lane id=":1079045416_0_1" index="1" speed="18.06" length="0.24" shape="1412.98,835.23 1413.03,834.94"/>
    </edge>
    <edge id=":1079045420_0" function="internal">
        <lane id=":1079045420_0_0" index="0" speed="13.89" length="0.40" shape="1226.59,821.91 1226.70,821.96 1226.77,821.99 1226.85,822.01 1226.97,822.04"/>
    </edge>
    <edge id=":1079045443_0" function="internal">
        <lane id=":1079045443_0_0" index="0" speed="13.89" length="0.19" shape="1034.37,802.76 1034.43,802.77 1034.47,802.77 1034.51,802.77 1034.56,802.77"/>
    </edge>
    <edge id=":1079045455_0" function="internal">
        <lane id=":1079045455_0_0" index="0" speed="8.33" length="0.60" shape="1032.09,715.43 1031.86,715.29 1031.71,715.18 1031.57,715.06 1031.37,714.88"/>
        <lane id=":1079045455_0_1" index="1" speed="8.33" length="0.60" shape="1033.80,712.73 1033.73,712.68 1033.68,712.65 1033.63,712.61 1033.56,712.55"/>
    </edge>
    <edge id=":1079045459_0" function="internal">
        <lane id=":1079045459_0_0" index="0" speed="13.89" length="11.09" shape="994.79,857.44 989.45,847.72"/>
        <lane id=":1079045459_0_1" index="1" speed="13.89" length="11.09" shape="997.59,855.90 992.25,846.18"/>
    </edge>
    <edge id=":1079045459_2" function="internal">
        <lane id=":1079045459_2_0" index="0" speed="6.52" length="8.98" shape="997.59,855.90 996.73,853.61 996.80,851.58 997.82,849.81 999.77,848.30"/>
    </edge>
    <edge id=":1079750130_0" function="internal">
        <lane id=":1079750130_0_0" index="0" speed="18.06" length="10.15" shape="2608.55,2702.86 2606.07,2701.28 2604.40,2700.14 2602.66,2699.14 2599.98,2697.97"/>
        <lane id=":1079750130_0_1" index="1" speed="18.06" length="10.15" shape="2610.19,2700.10 2607.57,2698.45 2605.81,2697.26 2603.97,2696.22 2601.15,2694.99"/>
    </edge>
    <edge id=":1079750130_2" function="internal">
        <lane id=":1079750130_2_0" index="0" speed="8.93" length="12.48" shape="2612.29,2696.45 2609.98,2698.32 2607.16,2699.20 2603.83,2699.08 2599.98,2697.97"/>
        <lane id=":1079750130_2_1" index="1" speed="8.41" length="12.48" shape="2611.69,2692.26 2609.36,2694.35 2606.83,2695.51 2604.09,2695.72 2601.15,2694.99"/>
    </edge>
    <edge id=":1079750132_0" function="internal">
        <lane id=":1079750132_0_0" index="0" speed="13.89" length="0.88" shape="1154.60,1557.81 1154.71,1557.89 1154.78,1557.94 1154.86,1557.98 1154.98,1558.03"/>
        <lane id=":1079750132_0_1" index="1" speed="13.89" length="0.88" shape="1152.62,1560.32 1152.92,1560.56 1153.14,1560.71 1153.38,1560.83 1153.74,1560.98"/>
    </edge>
    <edge id=":1079750202_0" function="internal">
        <lane id=":1079750202_0_0" index="0" speed="11.11" length="7.66" shape="2037.77,2002.99 2036.68,1995.45"/>
        <lane id=":1079750202_0_1" index="1" speed="11.11" length="7.66" shape="2040.94,2002.56 2039.84,1994.94"/>
    </edge>
    <edge id=":1079750202_2" function="internal">
        <lane id=":1079750202_2_0" index="0" speed="6.12" length="7.74" shape="2040.94,2002.56 2040.77,1999.82 2041.07,1997.79 2041.85,1996.47 2043.12,1995.88"/>
    </edge>
    <edge id=":1079750202_3" function="internal">
        <lane id=":1079750202_3_0" index="0" speed="5.55" length="6.28" shape="2043.62,1999.04 2042.24,1998.96 2041.15,1998.25 2040.35,1996.92 2039.84,1994.94"/>
    </edge>
    <edge id=":1079750202_4" function="internal">
        <lane id=":1079750202_4_0" index="0" speed="3.65" length="4.67" shape="2043.62,1999.04 2042.31,1998.43 2041.79,1997.71 2042.06,1996.85 2043.12,1995.88"/>
    </edge>
    <edge id=":1079750382_0" function="internal">
        <lane id=":1079750382_0_0" index="0" speed="13.89" length="0.83" shape="2590.35,2673.63 2590.46,2673.68 2590.54,2673.71 2590.62,2673.74 2590.74,2673.76"/>
        <lane id=":1079750382_0_1" index="1" speed="13.89" length="0.83" shape="2588.93,2676.50 2589.27,2676.66 2589.50,2676.75 2589.74,2676.82 2590.10,2676.90"/>
    </edge>
    <edge id=":1079750403_0" function="internal">
        <lane id=":1079750403_0_0" index="0" speed="15.97" length="15.40" shape="2056.80,2266.93 2056.59,2261.99 2056.30,2258.22 2055.67,2255.03 2054.44,2251.84"/>
    </edge>
    <edge id=":1079750403_1" function="internal">
        <lane id=":1079750403_1_0" index="0" speed="5.47" length="10.61" shape="2060.00,2266.79 2060.16,2263.23 2061.07,2261.74 2062.71,2262.32 2065.10,2264.97"/>
    </edge>
    <edge id=":1079750403_2" function="internal">
        <lane id=":1079750403_2_0" index="0" speed="15.97" length="16.34" shape="2057.32,2250.46 2059.16,2253.41 2061.47,2256.00 2064.29,2258.97 2067.66,2263.05"/>
    </edge>
    <edge id=":1079750403_3" function="internal">
        <lane id=":1079750403_3_0" index="0" speed="3.65" length="2.47" shape="2057.32,2250.46 2057.12,2251.89 2056.57,2252.59 2056.44,2252.59"/>
    </edge>
    <edge id=":1079750403_4" function="internal">
        <lane id=":1079750403_4_0" index="0" speed="3.65" length="2.21" shape="2056.44,2252.59 2055.68,2252.58 2054.44,2251.84"/>
    </edge>
    <edge id=":1079750450_0" function="internal">
        <lane id=":1079750450_0_0" index="0" speed="8.45" length="8.49" shape="1150.27,1572.31 1148.74,1572.26 1146.98,1572.81 1144.99,1573.96 1142.77,1575.70"/>
    </edge>
    <edge id=":1079750450_1" function="internal">
        <lane id=":1079750450_1_0" index="0" speed="9.13" length="9.99" shape="1150.27,1572.31 1147.18,1571.76 1144.55,1571.75 1142.38,1572.25 1140.67,1573.29"/>
    </edge>
    <edge id=":1079750450_2" function="internal">
        <lane id=":1079750450_2_0" index="0" speed="13.89" length="10.24" shape="1150.27,1572.31 1147.15,1571.56 1145.03,1570.92 1143.05,1569.96 1140.36,1568.23"/>
        <lane id=":1079750450_2_1" index="1" speed="13.89" length="10.24" shape="1151.03,1569.20 1148.24,1568.54 1146.33,1567.97 1144.56,1567.12 1142.16,1565.58"/>
    </edge>
    <edge id=":1079750483_0" function="internal">
        <lane id=":1079750483_0_0" index="0" speed="13.89" length="8.84" shape="2153.78,2234.82 2157.22,2243.00"/>
        <lane id=":1079750483_0_1" index="1" speed="13.89" length="8.84" shape="2150.84,2236.08 2154.26,2244.21"/>
    </edge>
    <edge id=":1079750483_2" function="internal">
        <lane id=":1079750483_2_0" index="0" speed="5.97" length="7.66" shape="2150.84,2236.08 2151.71,2238.62 2151.88,2240.61 2151.37,2242.03 2150.18,2242.90"/>
    </edge>
    <edge id=":1079750483_3" function="internal">
        <lane id=":1079750483_3_0" index="0" speed="6.05" length="7.50" shape="2149.04,2239.91 2150.48,2239.75 2151.83,2240.41 2153.09,2241.90 2154.26,2244.21"/>
    </edge>
    <edge id=":1079750483_4" function="internal">
        <lane id=":1079750483_4_0" index="0" speed="3.65" length="4.67" shape="2149.04,2239.91 2150.44,2240.23 2151.10,2240.83 2151.01,2241.72 2150.18,2242.90"/>
    </edge>
    <edge id=":1079750504_0" function="internal">
        <lane id=":1079750504_0_0" index="0" speed="13.89" length="11.90" shape="2381.05,2528.01 2371.36,2520.99"/>
        <lane id=":1079750504_0_1" index="1" speed="13.89" length="11.90" shape="2382.88,2525.38 2373.29,2518.44"/>
    </edge>
    <edge id=":1079750504_2" function="internal">
        <lane id=":1079750504_2_0" index="0" speed="5.86" length="11.35" shape="2382.88,2525.38 2379.89,2522.84 2378.93,2520.80 2380.01,2519.26 2383.12,2518.21"/>
    </edge>
    <edge id=":1079750504_3" function="internal">
        <lane id=":1079750504_3_0" index="0" speed="10.54" length="11.16" shape="2383.73,2521.36 2381.11,2521.55 2378.50,2521.13 2375.90,2520.09 2373.29,2518.44"/>
    </edge>
    <edge id=":1079750504_4" function="internal">
        <lane id=":1079750504_4_0" index="0" speed="3.65" length="4.67" shape="2383.73,2521.36 2382.40,2520.80 2381.86,2520.09 2382.10,2519.23 2383.12,2518.21"/>
    </edge>
    <edge id=":1079750568_0" function="internal">
        <lane id=":1079750568_0_0" index="0" speed="13.89" length="1.26" shape="1176.75,1567.98 1177.95,1567.58"/>
    </edge>
    <edge id=":1079750568_1" function="internal">
        <lane id=":1079750568_1_0" index="0" speed="13.89" length="1.75" shape="1177.42,1564.41 1175.75,1564.94"/>
    </edge>
    <edge id=":1079750690_0" function="internal">
        <lane id=":1079750690_0_0" index="0" speed="6.48" length="8.43" shape="2036.64,1995.26 2035.98,1993.43 2034.66,1992.20 2032.70,1991.56 2030.08,1991.52"/>
    </edge>
    <edge id=":1079750690_1" function="internal">
        <lane id=":1079750690_1_0" index="0" speed="8.33" length="13.17" shape="2036.64,1995.26 2034.67,1982.21"/>
        <lane id=":1079750690_1_1" index="1" speed="8.33" length="13.17" shape="2039.80,1994.75 2037.84,1981.75"/>
    </edge>
    <edge id=":1079750690_3" function="internal">
        <lane id=":1079750690_3_0" index="0" speed="6.93" length="10.36" shape="2039.80,1994.75 2039.66,1991.61 2040.35,1989.23 2041.88,1987.62 2044.25,1986.78"/>
    </edge>
    <edge id=":1079750690_4" function="internal">
        <lane id=":1079750690_4_0" index="0" speed="13.20" length="14.78" shape="2044.77,1989.93 2030.08,1991.52"/>
    </edge>
    <edge id=":1079750690_5" function="internal">
        <lane id=":1079750690_5_0" index="0" speed="7.38" length="4.30" shape="2044.77,1989.93 2042.23,1989.77 2040.80,1988.76"/>
    </edge>
    <edge id=":1079750690_6" function="internal">
        <lane id=":1079750690_6_0" index="0" speed="3.65" length="2.34" shape="2044.77,1989.93 2043.46,1989.34 2042.93,1988.62"/>
    </edge>
    <edge id=":1079750690_10" function="internal">
        <lane id=":1079750690_10_0" index="0" speed="7.38" length="7.79" shape="2040.80,1988.76 2040.23,1988.35 2038.76,1985.68 2037.84,1981.75"/>
    </edge>
    <edge id=":1079750690_11" function="internal">
        <lane id=":1079750690_11_0" index="0" speed="3.65" length="2.34" shape="2042.93,1988.62 2043.20,1987.76 2044.25,1986.78"/>
    </edge>
    <edge id=":1079750690_7" function="internal">
        <lane id=":1079750690_7_0" index="0" speed="6.39" length="9.04" shape="2029.81,1988.33 2032.24,1987.77 2033.86,1986.56 2034.67,1984.70 2034.67,1982.21"/>
    </edge>
    <edge id=":1079750690_8" function="internal">
        <lane id=":1079750690_8_0" index="0" speed="13.20" length="14.53" shape="2029.81,1988.33 2044.25,1986.78"/>
    </edge>
    <edge id=":1079750690_9" function="internal">
        <lane id=":1079750690_9_0" index="0" speed="3.65" length="2.34" shape="2029.81,1988.33 2031.07,1989.03 2031.54,1989.79"/>
    </edge>
    <edge id=":1079750690_12" function="internal">
        <lane id=":1079750690_12_0" index="0" speed="3.65" length="2.34" shape="2031.54,1989.79 2031.21,1990.62 2030.08,1991.52"/>
    </edge>
    <edge id=":1079750725_0" function="internal">
        <lane id=":1079750725_0_0" index="0" speed="13.89" length="3.60" shape="2234.26,2398.11 2233.31,2397.43 2232.65,2397.00 2232.03,2396.51 2231.22,2395.69"/>
        <lane id=":1079750725_0_1" index="1" speed="13.89" length="3.60" shape="2236.20,2395.56 2235.39,2395.00 2234.82,2394.64 2234.28,2394.23 2233.59,2393.54"/>
    </edge>
    <edge id=":1079750773_0" function="internal">
        <lane id=":1079750773_0_0" index="0" speed="14.35" length="10.62" shape="2073.45,2275.19 2074.13,2278.07 2074.51,2280.14 2075.30,2281.96 2077.18,2284.08"/>
        <lane id=":1079750773_0_1" index="1" speed="18.06" length="10.62" shape="2070.39,2276.13 2071.41,2279.33 2072.25,2281.48 2073.30,2283.54 2074.95,2286.48"/>
    </edge>
    <edge id=":1079750773_2" function="internal">
        <lane id=":1079750773_2_0" index="0" speed="13.13" length="10.89" shape="2067.21,2279.41 2070.51,2279.87 2072.73,2280.57 2074.68,2281.86 2077.18,2284.08"/>
        <lane id=":1079750773_2_1" index="1" speed="7.46" length="10.89" shape="2066.22,2282.70 2068.86,2282.24 2071.19,2282.72 2073.22,2284.13 2074.95,2286.48"/>
    </edge>
    <edge id=":1079750775_0" function="internal">
        <lane id=":1079750775_0_0" index="0" speed="15.97" length="9.21" shape="2595.94,2695.37 2594.16,2693.45 2592.48,2692.66 2590.56,2692.11 2588.10,2690.90"/>
    </edge>
    <edge id=":1079750775_1" function="internal">
        <lane id=":1079750775_1_0" index="0" speed="15.97" length="10.44" shape="2595.94,2695.37 2594.23,2692.78 2593.01,2691.00 2591.54,2689.48 2589.04,2687.70"/>
    </edge>
    <edge id=":1079750775_2" function="internal">
        <lane id=":1079750775_2_0" index="0" speed="9.99" length="10.45" shape="2595.94,2695.37 2594.04,2692.31 2592.84,2689.59 2592.35,2687.22 2592.55,2685.19"/>
        <lane id=":1079750775_2_1" index="1" speed="7.83" length="10.45" shape="2598.60,2693.51 2596.85,2691.76 2595.84,2689.70 2595.57,2687.33 2596.05,2684.66"/>
    </edge>
    <edge id=":1079750802_0" function="internal">
        <lane id=":1079750802_0_0" index="0" speed="9.45" length="8.69" shape="2616.33,2682.85 2616.84,2684.31 2617.95,2685.86 2619.66,2687.49 2621.97,2689.20"/>
    </edge>
    <edge id=":1079750802_1" function="internal">
        <lane id=":1079750802_1_0" index="0" speed="9.91" length="9.59" shape="2616.33,2682.85 2616.95,2686.08 2617.74,2688.61 2618.68,2690.45 2619.78,2691.59"/>
    </edge>
    <edge id=":1079750802_2" function="internal">
        <lane id=":1079750802_2_0" index="0" speed="9.91" length="9.72" shape="2616.33,2682.85 2616.70,2686.33 2616.68,2689.15 2616.24,2691.34 2615.39,2692.87"/>
        <lane id=":1079750802_2_1" index="1" speed="7.57" length="9.72" shape="2613.09,2683.36 2613.93,2685.57 2614.04,2687.72 2613.42,2689.81 2612.06,2691.83"/>
    </edge>
    <edge id=":1079750942_0" function="internal">
        <lane id=":1079750942_0_0" index="0" speed="13.89" length="9.12" shape="2137.68,2250.88 2134.09,2242.49"/>
        <lane id=":1079750942_0_1" index="1" speed="13.89" length="9.12" shape="2140.62,2249.61 2137.03,2241.23"/>
    </edge>
    <edge id=":1079750942_2" function="internal">
        <lane id=":1079750942_2_0" index="0" speed="5.95" length="7.62" shape="2140.62,2249.61 2139.76,2247.10 2139.59,2245.13 2140.11,2243.72 2141.31,2242.85"/>
    </edge>
    <edge id=":1079750942_3" function="internal">
        <lane id=":1079750942_3_0" index="0" speed="6.19" length="7.83" shape="2142.45,2245.84 2141.00,2245.98 2139.61,2245.26 2138.29,2243.67 2137.03,2241.23"/>
    </edge>
    <edge id=":1079750942_4" function="internal">
        <lane id=":1079750942_4_0" index="0" speed="3.65" length="4.67" shape="2142.45,2245.84 2141.04,2245.52 2140.38,2244.92 2140.47,2244.03 2141.31,2242.85"/>
    </edge>
    <edge id=":1079750946_0" function="internal">
        <lane id=":1079750946_0_0" index="0" speed="13.89" length="9.24" shape="2141.65,2259.62 2137.80,2251.15"/>
        <lane id=":1079750946_0_1" index="1" speed="13.89" length="9.24" shape="2144.54,2258.24 2140.74,2249.88"/>
    </edge>
    <edge id=":1079750946_2" function="internal">
        <lane id=":1079750946_2_0" index="0" speed="6.01" length="7.97" shape="2144.54,2258.24 2143.53,2255.62 2143.26,2253.57 2143.75,2252.09 2144.99,2251.18"/>
    </edge>
    <edge id=":1079750946_3" function="internal">
        <lane id=":1079750946_3_0" index="0" speed="6.12" length="7.64" shape="2146.15,2254.16 2144.67,2254.34 2143.27,2253.69 2141.96,2252.20 2140.74,2249.88"/>
    </edge>
    <edge id=":1079750946_4" function="internal">
        <lane id=":1079750946_4_0" index="0" speed="3.65" length="4.67" shape="2146.15,2254.16 2144.75,2253.85 2144.08,2253.25 2144.17,2252.36 2144.99,2251.18"/>
    </edge>
    <edge id=":1079750985_0" function="internal">
        <lane id=":1079750985_0_0" index="0" speed="15.97" length="10.34" shape="2592.55,2674.13 2595.23,2674.77 2597.10,2675.21 2598.97,2675.32 2601.66,2674.95"/>
        <lane id=":1079750985_0_1" index="1" speed="15.97" length="10.34" shape="2591.91,2677.27 2595.23,2678.00 2597.54,2678.42 2599.86,2678.43 2603.17,2677.91"/>
    </edge>
    <edge id=":1079750985_2" function="internal">
        <lane id=":1079750985_2_0" index="0" speed="8.81" length="10.30" shape="2593.64,2681.56 2594.74,2679.14 2596.44,2677.24 2598.75,2675.84 2601.66,2674.95"/>
        <lane id=":1079750985_2_1" index="1" speed="8.30" length="10.30" shape="2596.27,2683.92 2597.26,2681.69 2598.74,2679.95 2600.71,2678.69 2603.17,2677.91"/>
    </edge>
    <edge id=":1079751105_0" function="internal">
        <lane id=":1079751105_0_0" index="0" speed="8.92" length="1.04" shape="2078.78,2286.78 2079.02,2287.21 2079.16,2287.51 2079.25,2287.84 2079.33,2288.32"/>
        <lane id=":1079751105_0_1" index="1" speed="18.06" length="1.04" shape="2075.99,2288.34 2076.05,2288.45 2076.10,2288.52 2076.13,2288.60 2076.15,2288.73"/>
    </edge>
    <edge id=":1079751174_0" function="internal">
        <lane id=":1079751174_0_0" index="0" speed="13.89" length="7.72" shape="2157.36,2243.34 2160.32,2250.45"/>
        <lane id=":1079751174_0_1" index="1" speed="13.89" length="7.72" shape="2154.40,2244.56 2157.37,2251.69"/>
    </edge>
    <edge id=":1079751174_2" function="internal">