<!--
  ~ Copyright (c) 2020 Fraunhofer FOKUS and others. All rights reserved.
  ~
  ~ See the NOTICE file(s) distributed with this work for additional
  ~ information regarding copyright ownership.
  ~
  ~ This program and the accompanying materials are made available under the
  ~ terms of the Eclipse Public License 2.0 which is available at
  ~ http://www.eclipse.org/legal/epl-2.0
  ~
  ~ SPDX-License-Identifier: EPL-2.0
  ~
  ~ Contact: mosaic@fokus.fraunhofer.de
  -->
<routes xmlns:xsi="http://www.w3.org/2001/XMLSchema-instance" xsi:noNamespaceSchemaLocation="http://sumo.dlr.de/xsd/routes_file.xsd">
    <vType id="SumoVehicle"/>
    <vehicle id="0" type="SumoVehicle" depart="10" >
        <route edges="4068038_251150126_428788319_21487167 4068038_251150126_428788319_272365223 4068038_428788319_408194194_428788319 4068038_428788319_408194194_272256206 4068038_408194194_423839224_408194194 4068038_408194194_423839224_26738489 4068038_408194194_423839224_313006383 4068038_423839224_26704448_423839224 36337928_26704448_27537750_26704448 4609244_27537750_27537749_27537750 4609243_27537749_252864801_27537749 4609243_252864801_252864802_252864801 4609243_252864801_252864802_265786533 32935479_252864802_21487170_252864802 32935479_252864802_21487170_341364279 32935479_252864802_21487170_248919692 32935479_252864802_21487170_82654385 32935479_252864802_21487170_27011308 32935479_252864802_21487170_341364277 32935479_252864802_21487170_341364270 32935479_252864802_21487170_27011305" />
    </vehicle>
</routes>
