<configuration>
	<input>
		<net-file value="highway.net.xml" />
	</input>
	<time>
		<begin value="0" />
		<end value="10000" />
	</time>
</configuration>
