<?xml version="1.0" encoding="UTF-8"?>

<net version="0.27" xmlns:xsi="http://www.w3.org/2001/XMLSchema-instance" xsi:noNamespaceSchemaLocation="http://sumo.dlr.de/xsd/net_file.xsd">

    <location netOffset="-691174.08,-5789894.65" convBoundary="0.00,0.00,10417.53,1414.71" origBoundary="691174.08,5789894.65,701591.61,5791309.35" projParameter="!"/>

    <edge id=":1069962629_0" function="internal">
        <lane id=":1069962629_0_0" index="0" speed="19.44" length="0.16" shape="6498.40,1039.36 6498.35,1039.38 6498.32,1039.39 6498.29,1039.41 6498.25,1039.43"/>
    </edge>
    <edge id=":1069962631_0" function="internal">
        <lane id=":1069962631_0_0" index="0" speed="19.44" length="0.12" shape="6447.76,1084.32 6447.68,1084.40"/>
    </edge>
    <edge id=":1069962666_0" function="internal">
        <lane id=":1069962666_0_0" index="0" speed="19.44" length="0.36" shape="6425.89,1091.23 6425.99,1091.20 6426.06,1091.17 6426.13,1091.14 6426.22,1091.09"/>
    </edge>
    <edge id=":1069962795_0" function="internal">
        <lane id=":1069962795_0_0" index="0" speed="19.44" length="0.13" shape="6380.08,1101.71 6379.95,1101.69"/>
    </edge>
    <edge id=":1069962911_0" function="internal">
        <lane id=":1069962911_0_0" index="0" speed="19.44" length="0.32" shape="6431.54,1006.93 6431.46,1006.88 6431.41,1006.85 6431.35,1006.82 6431.26,1006.78"/>
    </edge>
    <edge id=":1069963126_0" function="internal">
        <lane id=":1069963126_0_0" index="0" speed="19.44" length="0.54" shape="6518.89,1031.59 6518.73,1031.60 6518.62,1031.61 6518.52,1031.64 6518.37,1031.70"/>
    </edge>
    <edge id=":1069963190_0" function="internal">
        <lane id=":1069963190_0_0" index="0" speed="19.44" length="0.10" shape="6461.93,1068.06 6462.00,1067.98"/>
    </edge>
    <edge id=":1069963315_0" function="internal">
        <lane id=":1069963315_0_0" index="0" speed="36.11" length="0.30" shape="4983.11,660.49 4982.82,660.42"/>
        <lane id=":1069963315_0_1" index="1" speed="36.11" length="0.30" shape="4983.87,657.27 4983.57,657.21"/>
        <lane id=":1069963315_0_2" index="2" speed="36.11" length="0.30" shape="4984.62,654.06 4984.32,653.99"/>
    </edge>
    <edge id=":1069963351_0" function="internal">
        <lane id=":1069963351_0_0" index="0" speed="19.44" length="0.28" shape="6440.51,1081.01 6440.57,1080.96 6440.61,1080.92 6440.65,1080.88 6440.70,1080.81"/>
    </edge>
    <edge id=":1069963398_0" function="internal">
        <lane id=":1069963398_0_0" index="0" speed="19.44" length="0.23" shape="6453.10,1049.57 6453.11,1049.50 6453.12,1049.46 6453.12,1049.41 6453.11,1049.34"/>
    </edge>
    <edge id=":1288275769_0" function="internal">
        <lane id=":1288275769_0_0" index="0" speed="36.11" length="0.30" shape="2814.60,153.09 2814.31,153.03"/>
        <lane id=":1288275769_0_1" index="1" speed="36.11" length="0.30" shape="2815.36,149.88 2815.07,149.81"/>
        <lane id=":1288275769_0_2" index="2" speed="36.11" length="0.30" shape="2816.12,146.67 2815.82,146.60"/>
    </edge>
    <edge id=":1288275815_0" function="internal">
        <lane id=":1288275815_0_0" index="0" speed="36.11" length="0.30" shape="3500.13,314.38 3499.85,314.31"/>
        <lane id=":1288275815_0_1" index="1" speed="36.11" length="0.30" shape="3500.88,311.17 3500.59,311.10"/>
        <lane id=":1288275815_0_2" index="2" speed="36.11" length="0.30" shape="3501.63,307.95 3501.34,307.88"/>
    </edge>
    <edge id=":1288275856_0" function="internal">
        <lane id=":1288275856_0_0" index="0" speed="36.11" length="0.30" shape="2628.14,109.32 2627.87,109.26"/>
        <lane id=":1288275856_0_1" index="1" speed="36.11" length="0.30" shape="2628.89,106.11 2628.60,106.04"/>
        <lane id=":1288275856_0_2" index="2" speed="36.11" length="0.30" shape="2629.65,102.89 2629.33,102.82"/>
    </edge>
    <edge id=":1288275930_0" function="internal">
        <lane id=":1288275930_0_0" index="0" speed="36.11" length="0.10" shape="3461.01,305.30 3461.02,305.30"/>
        <lane id=":1288275930_0_1" index="1" speed="36.11" length="0.10" shape="3461.76,302.08 3461.76,302.08"/>
        <lane id=":1288275930_0_2" index="2" speed="36.11" length="0.10" shape="3462.51,298.87 3462.51,298.87"/>
    </edge>
    <edge id=":1389302610_0" function="internal">
        <lane id=":1389302610_0_0" index="0" speed="19.44" length="0.66" shape="1427.17,149.11 1426.98,149.06 1426.86,149.02 1426.74,148.95 1426.58,148.84"/>
    </edge>
    <edge id=":1389302611_0" function="internal">
        <lane id=":1389302611_0_0" index="0" speed="19.44" length="3.02" shape="1489.04,155.16 1486.07,155.66"/>
    </edge>
    <edge id=":1389302611_1" function="internal">
        <lane id=":1389302611_1_0" index="0" speed="19.44" length="2.41" shape="1489.04,155.16 1487.68,154.58 1487.12,153.84"/>
    </edge>
    <edge id=":1389302611_5" function="internal">
        <lane id=":1389302611_5_0" index="0" speed="19.44" length="2.41" shape="1487.12,153.84 1487.37,152.96 1488.43,151.92"/>
    </edge>
    <edge id=":1389302611_2" function="internal">
        <lane id=":1389302611_2_0" index="0" speed="19.44" length="3.62" shape="1485.58,152.40 1487.82,148.67"/>
        <lane id=":1389302611_2_1" index="1" speed="19.44" length="3.62" shape="1485.58,152.40 1488.43,151.92"/>
    </edge>
    <edge id=":1389302611_4" function="internal">
        <lane id=":1389302611_4_0" index="0" speed="19.44" length="2.41" shape="1485.58,152.40 1486.92,153.03 1487.45,153.79"/>
    </edge>
    <edge id=":1389302611_6" function="internal">
        <lane id=":1389302611_6_0" index="0" speed="19.44" length="2.41" shape="1487.45,153.79 1487.17,154.66 1486.07,155.66"/>
    </edge>
    <edge id=":1389302723_0" function="internal">
        <lane id=":1389302723_0_0" index="0" speed="36.11" length="0.30" shape="1828.53,14.22 1828.27,14.23"/>
        <lane id=":1389302723_0_1" index="1" speed="36.11" length="0.30" shape="1828.35,10.92 1828.06,10.94"/>
        <lane id=":1389302723_0_2" index="2" speed="36.11" length="0.30" shape="1828.18,7.63 1827.85,7.65"/>
    </edge>
    <edge id=":2030999712_0" function="internal">
        <lane id=":2030999712_0_0" index="0" speed="36.11" length="3.36" shape="6751.29,1069.81 6747.70,1072.49"/>
        <lane id=":2030999712_0_1" index="1" speed="36.11" length="3.36" shape="6751.29,1069.81 6748.33,1069.25"/>
        <lane id=":2030999712_0_2" index="2" speed="36.11" length="3.36" shape="6751.89,1066.57 6748.96,1066.01"/>
        <lane id=":2030999712_0_3" index="3" speed="36.11" length="3.36" shape="6752.50,1063.32 6749.59,1062.77"/>
    </edge>
    <edge id=":2030999713_0" function="internal">
        <lane id=":2030999713_0_0" index="0" speed="36.11" length="2.99" shape="6223.53,952.81 6220.60,952.12"/>
        <lane id=":2030999713_0_1" index="1" speed="36.11" length="2.99" shape="6224.28,949.60 6221.37,948.91"/>
        <lane id=":2030999713_0_2" index="2" speed="36.11" length="2.99" shape="6225.03,946.38 6222.14,945.70"/>
    </edge>
    <edge id=":2031023083_0" function="internal">
        <lane id=":2031023083_0_0" index="0" speed="36.11" length="3.36" shape="1710.20,21.67 1707.44,25.16"/>
        <lane id=":2031023083_0_1" index="1" speed="36.11" length="3.36" shape="1710.20,21.67 1707.22,21.86"/>
        <lane id=":2031023083_0_2" index="2" speed="36.11" length="3.36" shape="1709.99,18.38 1707.00,18.57"/>
        <lane id=":2031023083_0_3" index="3" speed="36.11" length="3.36" shape="1709.79,15.08 1706.77,15.28"/>
    </edge>
    <edge id=":2031023091_0" function="internal">
        <lane id=":2031023091_0_0" index="0" speed="36.11" length="3.00" shape="1064.03,63.83 1061.03,64.03"/>
        <lane id=":2031023091_0_1" index="1" speed="36.11" length="3.00" shape="1063.81,60.54 1060.82,60.74"/>
        <lane id=":2031023091_0_2" index="2" speed="36.11" length="3.00" shape="1063.58,57.24 1060.60,57.44"/>
    </edge>
    <edge id=":26305479_0" function="internal">
        <lane id=":26305479_0_0" index="0" speed="36.11" length="5.91" shape="6385.06,990.86 6379.32,989.53"/>
        <lane id=":26305479_0_1" index="1" speed="36.11" length="5.91" shape="6385.84,987.66 6380.08,986.32"/>
        <lane id=":26305479_0_2" index="2" speed="36.11" length="5.91" shape="6386.63,984.45 6380.85,983.11"/>
    </edge>
    <edge id=":26305479_3" function="internal">
        <lane id=":26305479_3_0" index="0" speed="27.77" length="4.42" shape="6382.37,994.85 6381.18,994.40 6380.46,993.81 6379.75,993.22 6378.55,992.74"/>
    </edge>
    <edge id=":26305480_0" function="internal">
        <lane id=":26305480_0_0" index="0" speed="36.11" length="0.30" shape="609.82,93.72 609.55,93.74"/>
        <lane id=":26305480_0_1" index="1" speed="36.11" length="0.30" shape="609.60,90.43 609.31,90.45"/>
        <lane id=":26305480_0_2" index="2" speed="36.11" length="0.30" shape="609.39,87.14 609.06,87.16"/>
    </edge>
    <edge id=":272019362_0" function="internal">
        <lane id=":272019362_0_0" index="0" speed="36.11" length="0.14" shape="7389.35,1163.61 7389.15,1163.59"/>
        <lane id=":272019362_0_1" index="1" speed="36.11" length="0.14" shape="7389.64,1160.32 7389.52,1160.31"/>
        <lane id=":272019362_0_2" index="2" speed="36.11" length="0.14" shape="7389.93,1157.03 7389.89,1157.03"/>
    </edge>
    <edge id=":272019364_0" function="internal">
        <lane id=":272019364_0_0" index="0" speed="36.11" length="0.15" shape="7209.81,1143.46 7209.59,1143.43"/>
        <lane id=":272019364_0_1" index="1" speed="36.11" length="0.15" shape="7210.18,1140.18 7210.04,1140.16"/>
        <lane id=":272019364_0_2" index="2" speed="36.11" length="0.15" shape="7210.55,1136.90 7210.50,1136.89"/>
    </edge>
    <edge id=":272019369_0" function="internal">
        <lane id=":272019369_0_0" index="0" speed="36.11" length="0.11" shape="6849.20,1087.94 6849.06,1087.91"/>
        <lane id=":272019369_0_1" index="1" speed="36.11" length="0.11" shape="6849.74,1084.68 6849.66,1084.67"/>
        <lane id=":272019369_0_2" index="2" speed="36.11" length="0.11" shape="6850.29,1081.43 6850.26,1081.42"/>
    </edge>
    <edge id=":272019371_0" function="internal">
        <lane id=":272019371_0_0" index="0" speed="36.11" length="0.30" shape="6311.38,976.64 6311.12,976.58"/>
        <lane id=":272019371_0_1" index="1" speed="36.11" length="0.30" shape="6312.15,973.43 6311.87,973.37"/>
        <lane id=":272019371_0_2" index="2" speed="36.11" length="0.30" shape="6312.92,970.22 6312.62,970.15"/>
        <lane id=":272019371_0_3" index="3" speed="36.11" length="0.30" shape="6313.69,967.01 6313.37,966.94"/>
    </edge>
    <edge id=":272019373_0" function="internal">
        <lane id=":272019373_0_0" index="0" speed="36.11" length="0.30" shape="6110.34,925.67 6110.07,925.60"/>
        <lane id=":272019373_0_1" index="1" speed="36.11" length="0.30" shape="6111.11,922.46 6110.82,922.39"/>
        <lane id=":272019373_0_2" index="2" speed="36.11" length="0.30" shape="6111.88,919.25 6111.58,919.18"/>
    </edge>
    <edge id=":272019376_0" function="internal">
        <lane id=":272019376_0_0" index="0" speed="36.11" length="0.30" shape="3295.72,266.94 3295.42,266.87"/>
        <lane id=":272019376_0_1" index="1" speed="36.11" length="0.30" shape="3296.47,263.72 3296.18,263.66"/>
        <lane id=":272019376_0_2" index="2" speed="36.11" length="0.30" shape="3297.21,260.51 3296.93,260.44"/>
    </edge>
    <edge id=":272026312_0" function="internal">
        <lane id=":272026312_0_0" index="0" speed="36.11" length="0.30" shape="2365.89,49.97 2365.69,49.92"/>
        <lane id=":272026312_0_1" index="1" speed="36.11" length="0.30" shape="2366.62,46.75 2366.33,46.68"/>
        <lane id=":272026312_0_2" index="2" speed="36.11" length="0.30" shape="2367.35,43.53 2366.96,43.45"/>
    </edge>
    <edge id=":272026316_0" function="internal">
        <lane id=":272026316_0_0" index="0" speed="36.11" length="0.26" shape="2283.81,33.83 2283.73,33.81"/>
        <lane id=":272026316_0_1" index="1" speed="36.11" length="0.26" shape="2284.45,30.59 2284.20,30.54"/>
        <lane id=":272026316_0_2" index="2" speed="36.11" length="0.26" shape="2285.09,27.35 2284.66,27.28"/>
    </edge>
    <edge id=":272026318_0" function="internal">
        <lane id=":272026318_0_0" index="0" speed="36.11" length="0.45" shape="2195.27,21.23 2194.97,21.19"/>
        <lane id=":272026318_0_1" index="1" speed="36.11" length="0.45" shape="2195.73,17.96 2195.28,17.91"/>
        <lane id=":272026318_0_2" index="2" speed="36.11" length="0.45" shape="2196.20,14.69 2195.59,14.62"/>
    </edge>
    <edge id=":272026323_0" function="internal">
        <lane id=":272026323_0_0" index="0" speed="36.11" length="0.29" shape="1845.90,13.30 1845.67,13.31"/>
        <lane id=":272026323_0_1" index="1" speed="36.11" length="0.29" shape="1845.78,10.00 1845.50,10.01"/>
        <lane id=":272026323_0_2" index="2" speed="36.11" length="0.29" shape="1845.66,6.70 1845.32,6.72"/>
    </edge>
    <edge id=":272026334_0" function="internal">
        <lane id=":272026334_0_0" index="0" speed="36.11" length="0.32" shape="1985.98,8.26 1985.88,8.26"/>
        <lane id=":272026334_0_1" index="1" speed="36.11" length="0.32" shape="1986.08,4.96 1985.76,4.96"/>
        <lane id=":272026334_0_2" index="2" speed="36.11" length="0.32" shape="1986.17,1.66 1985.64,1.66"/>
    </edge>
    <edge id=":277979923_0" function="internal">
        <lane id=":277979923_0_0" index="0" speed="19.44" length="0.51" shape="6452.37,1034.15 6452.36,1034.00 6452.34,1033.89 6452.31,1033.79 6452.26,1033.65"/>
    </edge>
    <edge id=":277979924_0" function="internal">
        <lane id=":277979924_0_0" index="0" speed="19.44" length="0.32" shape="6450.09,1065.81 6450.13,1065.72 6450.15,1065.66 6450.17,1065.60 6450.20,1065.51"/>
    </edge>
    <edge id=":277979994_0" function="internal">
        <lane id=":277979994_0_0" index="0" speed="19.44" length="0.26" shape="6345.40,1084.98 6345.65,1085.04"/>
    </edge>
    <edge id=":281722117_0" function="internal">
        <lane id=":281722117_0_0" index="0" speed="27.77" length="3.91" shape="6591.79,1041.63 6587.97,1040.81"/>
    </edge>
    <edge id=":281722117_1" function="internal">
        <lane id=":281722117_1_0" index="0" speed="36.11" length="3.55" shape="6592.44,1038.39 6588.79,1037.61"/>
        <lane id=":281722117_1_1" index="1" speed="36.11" length="3.55" shape="6593.08,1035.16 6589.62,1034.42"/>
        <lane id=":281722117_1_2" index="2" speed="36.11" length="3.55" shape="6593.73,1031.92 6590.44,1031.22"/>
    </edge>
    <edge id=":281722119_0" function="internal">
        <lane id=":281722119_0_0" index="0" speed="19.44" length="0.40" shape="6543.89,1030.84 6543.78,1030.81 6543.69,1030.80 6543.61,1030.80 6543.49,1030.80"/>
    </edge>
    <edge id=":281722120_0" function="internal">
        <lane id=":281722120_0_0" index="0" speed="19.44" length="0.15" shape="6479.89,1050.51 6479.85,1050.53 6479.83,1050.55 6479.81,1050.57 6479.77,1050.60"/>
    </edge>
    <edge id=":281722121_0" function="internal">
        <lane id=":281722121_0_0" index="0" speed="19.44" length="0.35" shape="6428.43,1098.58 6428.34,1098.63 6428.28,1098.67 6428.21,1098.69 6428.11,1098.73"/>
    </edge>
    <edge id=":281722122_0" function="internal">
        <lane id=":281722122_0_0" index="0" speed="19.44" length="0.54" shape="6404.19,1104.98 6404.03,1105.01 6403.92,1105.02 6403.81,1105.02 6403.65,1105.00"/>
    </edge>
    <edge id=":288337201_0" function="internal">
        <lane id=":288337201_0_0" index="0" speed="36.11" length="0.30" shape="6350.92,986.15 6350.62,986.08"/>
        <lane id=":288337201_0_1" index="1" speed="36.11" length="0.30" shape="6351.69,982.94 6351.39,982.87"/>
        <lane id=":288337201_0_2" index="2" speed="36.11" length="0.30" shape="6352.45,979.73 6352.16,979.66"/>
        <lane id=":288337201_0_3" index="3" speed="36.11" length="0.30" shape="6353.22,976.52 6352.93,976.45"/>
    </edge>
    <edge id=":30042541_0" function="internal">
        <lane id=":30042541_0_0" index="0" speed="36.11" length="0.41" shape="2112.44,13.36 2112.17,13.34"/>
        <lane id=":30042541_0_1" index="1" speed="36.11" length="0.41" shape="2112.75,10.08 2112.35,10.05"/>
        <lane id=":30042541_0_2" index="2" speed="36.11" length="0.41" shape="2113.07,6.79 2112.53,6.75"/>
    </edge>
    <edge id=":30042548_0" function="internal">
        <lane id=":30042548_0_0" index="0" speed="36.11" length="0.15" shape="7035.15,1119.02 7034.93,1118.99"/>
        <lane id=":30042548_0_1" index="1" speed="36.11" length="0.15" shape="7035.60,1115.75 7035.47,1115.73"/>
        <lane id=":30042548_0_2" index="2" speed="36.11" length="0.15" shape="7036.06,1112.48 7036.02,1112.48"/>
    </edge>
    <edge id=":30042550_0" function="internal">
        <lane id=":30042550_0_0" index="0" speed="36.11" length="0.30" shape="8500.87,1260.04 8500.56,1260.02"/>
        <lane id=":30042550_0_1" index="1" speed="36.11" length="0.30" shape="8501.14,1256.75 8500.84,1256.73"/>
        <lane id=":30042550_0_2" index="2" speed="36.11" length="0.30" shape="8501.41,1253.47 8501.13,1253.44"/>
    </edge>
    <edge id=":30042554_0" function="internal">
        <lane id=":30042554_0_0" index="0" speed="36.11" length="0.30" shape="9613.06,1354.20 9612.76,1354.18"/>
        <lane id=":30042554_0_1" index="1" speed="36.11" length="0.30" shape="9613.34,1350.91 9613.04,1350.89"/>
        <lane id=":30042554_0_2" index="2" speed="36.11" length="0.30" shape="9613.62,1347.63 9613.32,1347.60"/>
    </edge>
    <edge id=":300901535_0" function="internal">
        <lane id=":300901535_0_0" index="0" speed="36.11" length="0.29" shape="571.90,96.53 571.57,96.55"/>
        <lane id=":300901535_0_1" index="1" speed="36.11" length="0.29" shape="571.65,93.24 571.36,93.26"/>
        <lane id=":300901535_0_2" index="2" speed="36.11" length="0.29" shape="571.41,89.95 571.15,89.96"/>
    </edge>
    <edge id=":319056342_0" function="internal">
        <lane id=":319056342_0_0" index="0" speed="19.44" length="0.40" shape="6445.88,1019.75 6445.83,1019.64 6445.78,1019.57 6445.74,1019.51 6445.66,1019.42"/>
    </edge>
    <edge id=":3256613371_0" function="internal">
        <lane id=":3256613371_0_0" index="0" speed="36.11" length="0.27" shape="2054.41,10.23 2054.23,10.22"/>
        <lane id=":3256613371_0_1" index="1" speed="36.11" length="0.27" shape="2054.59,6.93 2054.32,6.92"/>
        <lane id=":3256613371_0_2" index="2" speed="36.11" length="0.27" shape="2054.77,3.64 2054.42,3.62"/>
    </edge>
    <edge id=":3256613374_0" function="internal">
        <lane id=":3256613374_0_0" index="0" speed="19.44" length="0.10" shape="1475.54,41.23 1475.54,41.23"/>
    </edge>
    <edge id=":3256613375_0" function="internal">
        <lane id=":3256613375_0_0" index="0" speed="19.44" length="0.23" shape="1460.30,42.06 1460.06,42.08"/>
    </edge>
    <edge id=":3256613376_0" function="internal">
        <lane id=":3256613376_0_0" index="0" speed="19.44" length="0.33" shape="1315.15,50.81 1315.06,50.80 1314.99,50.79 1314.92,50.79 1314.83,50.79"/>
    </edge>
    <edge id=":3256613377_0" function="internal">
        <lane id=":3256613377_0_0" index="0" speed="19.44" length="0.10" shape="1298.42,51.38 1298.51,51.37"/>
    </edge>
    <edge id=":3256613380_0" function="internal">
        <lane id=":3256613380_0_0" index="0" speed="19.44" length="0.25" shape="1410.07,104.34 1410.08,104.41 1410.09,104.46 1410.10,104.51 1410.12,104.59"/>
    </edge>
    <edge id=":3256613381_0" function="internal">
        <lane id=":3256613381_0_0" index="0" speed="19.44" length="0.18" shape="1422.92,132.13 1422.95,132.18 1422.98,132.20 1423.00,132.23 1423.04,132.27"/>
    </edge>
    <edge id=":3256636160_0" function="internal">
        <lane id=":3256636160_0_0" index="0" speed="19.44" length="0.34" shape="1413.86,117.72 1413.89,117.82 1413.91,117.88 1413.94,117.95 1413.99,118.04"/>
    </edge>
    <edge id=":3256641561_0" function="internal">
        <lane id=":3256641561_0_0" index="0" speed="19.44" length="0.35" shape="1570.77,138.09 1570.43,138.18"/>
    </edge>
    <edge id=":3256641561_1" function="internal">
        <lane id=":3256641561_1_0" index="0" speed="19.44" length="2.41" shape="1570.77,138.09 1569.35,137.66 1568.71,136.99"/>
    </edge>
    <edge id=":3256641561_5" function="internal">
        <lane id=":3256641561_5_0" index="0" speed="19.44" length="2.41" shape="1568.71,136.99 1568.87,136.08 1569.81,134.93"/>
    </edge>
    <edge id=":3256641561_2" function="internal">
        <lane id=":3256641561_2_0" index="0" speed="19.44" length="0.19" shape="1568.73,131.81 1568.86,131.77"/>
        <lane id=":3256641561_2_1" index="1" speed="19.44" length="0.19" shape="1569.58,134.99 1569.81,134.93"/>
    </edge>
    <edge id=":3256641561_4" function="internal">
        <lane id=":3256641561_4_0" index="0" speed="19.44" length="2.41" shape="1569.58,134.99 1570.99,135.47 1571.60,136.16"/>
    </edge>
    <edge id=":3256641561_6" function="internal">
        <lane id=":3256641561_6_0" index="0" speed="19.44" length="2.41" shape="1571.60,136.16 1571.41,137.07 1570.43,138.18"/>
    </edge>
    <edge id=":3256641562_0" function="internal">
        <lane id=":3256641562_0_0" index="0" speed="19.44" length="0.94" shape="1471.54,157.84 1471.27,157.88 1471.08,157.89 1470.88,157.90 1470.61,157.88"/>
    </edge>
    <edge id=":3256641562_1" function="internal">
        <lane id=":3256641562_1_0" index="0" speed="19.44" length="0.31" shape="1470.75,154.59 1470.84,154.59 1470.90,154.59 1470.97,154.58 1471.06,154.57"/>
    </edge>
    <edge id=":3256641563_0" function="internal">
        <lane id=":3256641563_0_0" index="0" speed="19.44" length="0.65" shape="1576.25,164.60 1576.09,164.48 1576.00,164.39 1575.92,164.28 1575.82,164.12"/>
    </edge>
    <edge id=":3256666339_0" function="internal">
        <lane id=":3256666339_0_0" index="0" speed="19.44" length="0.27" shape="6398.15,998.25 6397.88,998.20"/>
    </edge>
    <edge id=":3256666340_0" function="internal">
        <lane id=":3256666340_0_0" index="0" speed="19.44" length="0.33" shape="6421.27,1002.65 6421.18,1002.62 6421.12,1002.59 6421.05,1002.58 6420.96,1002.56"/>
    </edge>
    <edge id=":3256666342_0" function="internal">
        <lane id=":3256666342_0_0" index="0" speed="19.44" length="0.29" shape="6576.84,1038.17 6576.56,1038.11"/>
    </edge>
    <edge id=":3256666344_0" function="internal">
        <lane id=":3256666344_0_0" index="0" speed="36.11" length="0.30" shape="6710.18,1065.21 6709.86,1065.15"/>
        <lane id=":3256666344_0_1" index="1" speed="36.11" length="0.30" shape="6710.81,1061.97 6710.51,1061.92"/>
        <lane id=":3256666344_0_2" index="2" speed="36.11" length="0.30" shape="6711.44,1058.73 6711.15,1058.68"/>
        <lane id=":3256666344_0_3" index="3" speed="36.11" length="0.30" shape="6712.07,1055.50 6711.80,1055.44"/>
    </edge>
    <edge id=":3256666347_0" function="internal">
        <lane id=":3256666347_0_0" index="0" speed="36.11" length="0.30" shape="7943.46,1211.87 7943.16,1211.85"/>
        <lane id=":3256666347_0_1" index="1" speed="36.11" length="0.30" shape="7943.74,1208.58 7943.44,1208.56"/>
        <lane id=":3256666347_0_2" index="2" speed="36.11" length="0.30" shape="7944.03,1205.30 7943.73,1205.27"/>
    </edge>
    <edge id=":3256666348_0" function="internal">
        <lane id=":3256666348_0_0" index="0" speed="36.11" length="0.30" shape="8225.58,1236.20 8225.28,1236.18"/>
        <lane id=":3256666348_0_1" index="1" speed="36.11" length="0.30" shape="8225.86,1232.91 8225.56,1232.89"/>
        <lane id=":3256666348_0_2" index="2" speed="36.11" length="0.30" shape="8226.15,1229.63 8225.85,1229.60"/>
    </edge>
    <edge id=":3256666350_0" function="internal">
        <lane id=":3256666350_0_0" index="0" speed="36.11" length="0.30" shape="9057.21,1306.49 9056.92,1306.47"/>
        <lane id=":3256666350_0_1" index="1" speed="36.11" length="0.30" shape="9057.49,1303.21 9057.19,1303.18"/>
        <lane id=":3256666350_0_2" index="2" speed="36.11" length="0.30" shape="9057.77,1299.92 9057.47,1299.89"/>
    </edge>
    <edge id=":3256666352_0" function="internal">
        <lane id=":3256666352_0_0" index="0" speed="36.11" length="0.30" shape="10184.75,1403.14 10184.45,1403.12"/>
        <lane id=":3256666352_0_1" index="1" speed="36.11" length="0.30" shape="10185.03,1399.85 10184.73,1399.83"/>
        <lane id=":3256666352_0_2" index="2" speed="36.11" length="0.30" shape="10185.31,1396.57 10185.01,1396.54"/>
    </edge>
    <edge id=":3257049721_0" function="internal">
        <lane id=":3257049721_0_0" index="0" speed="36.11" length="0.30" shape="5792.17,851.00 5791.87,850.93"/>
        <lane id=":3257049721_0_1" index="1" speed="36.11" length="0.30" shape="5792.92,847.78 5792.63,847.71"/>
        <lane id=":3257049721_0_2" index="2" speed="36.11" length="0.30" shape="5793.68,844.57 5793.39,844.50"/>
    </edge>
    <edge id=":5821266008_0" function="internal">
        <lane id=":5821266008_0_0" index="0" speed="19.44" length="0.24" shape="6488.76,1044.22 6488.70,1044.25 6488.66,1044.28 6488.62,1044.31 6488.56,1044.35"/>
    </edge>
    <edge id=":5821266009_0" function="internal">
        <lane id=":5821266009_0_0" index="0" speed="19.44" length="0.20" shape="6470.57,1058.51 6470.53,1058.55 6470.50,1058.57 6470.47,1058.60 6470.43,1058.65"/>
    </edge>
    <edge id=":5821266050_0" function="internal">
        <lane id=":5821266050_0_0" index="0" speed="19.44" length="0.56" shape="6324.60,1079.28 6324.74,1079.37 6324.84,1079.43 6324.94,1079.47 6325.10,1079.52"/>
    </edge>
    <edge id=":5821266051_0" function="internal">
        <lane id=":5821266051_0_0" index="0" speed="19.44" length="0.62" shape="6318.21,1087.92 6318.03,1087.88 6317.91,1087.87 6317.78,1087.88 6317.60,1087.90"/>
    </edge>
    <edge id=":5821266052_0" function="internal">
        <lane id=":5821266052_0_0" index="0" speed="19.44" length="0.19" shape="6416.87,1102.41 6416.82,1102.43 6416.78,1102.44 6416.74,1102.45 6416.69,1102.46"/>
    </edge>
    <edge id=":5821266053_0" function="internal">
        <lane id=":5821266053_0_0" index="0" speed="19.44" length="0.31" shape="6438.97,1092.26 6438.90,1092.32 6438.85,1092.36 6438.80,1092.40 6438.72,1092.44"/>
    </edge>
    <edge id=":5821266054_0" function="internal">
        <lane id=":5821266054_0_0" index="0" speed="19.44" length="0.33" shape="6433.82,1086.83 6433.90,1086.78 6433.96,1086.74 6434.01,1086.70 6434.09,1086.64"/>
    </edge>
    <edge id=":5821266055_0" function="internal">
        <lane id=":5821266055_0_0" index="0" speed="19.44" length="0.14" shape="6455.09,1076.65 6455.06,1076.68 6455.04,1076.71 6455.02,1076.73 6454.99,1076.76"/>
    </edge>
    <edge id=":5821266056_0" function="internal">
        <lane id=":5821266056_0_0" index="0" speed="19.44" length="0.38" shape="6446.13,1074.09 6446.20,1074.00 6446.25,1073.93 6446.28,1073.87 6446.33,1073.76"/>
    </edge>
    <edge id=":5821266057_0" function="internal">
        <lane id=":5821266057_0_0" index="0" speed="19.44" length="0.20" shape="6452.16,1057.56 6452.17,1057.51 6452.18,1057.47 6452.19,1057.42 6452.19,1057.37"/>
    </edge>
    <edge id=":5821266058_0" function="internal">
        <lane id=":5821266058_0_0" index="0" speed="19.44" length="0.20" shape="6452.91,1041.76 6452.90,1041.56"/>
    </edge>
    <edge id=":5821266059_0" function="internal">
        <lane id=":5821266059_0_0" index="0" speed="19.44" length="0.13" shape="6449.54,1027.02 6449.49,1026.91"/>
    </edge>
    <edge id=":5821266060_0" function="internal">
        <lane id=":5821266060_0_0" index="0" speed="19.44" length="0.42" shape="6439.38,1012.23 6439.30,1012.14 6439.24,1012.08 6439.17,1012.02 6439.06,1011.95"/>
    </edge>
    <edge id=":5822362669_0" function="internal">
        <lane id=":5822362669_0_0" index="0" speed="19.44" length="0.47" shape="1447.31,43.24 1447.18,43.25 1447.08,43.27 1446.99,43.30 1446.86,43.35"/>
    </edge>
    <edge id=":5822362670_0" function="internal">
        <lane id=":5822362670_0_0" index="0" speed="19.44" length="0.14" shape="1430.86,52.70 1430.75,52.79"/>
    </edge>
    <edge id=":5822549410_0" function="internal">
        <lane id=":5822549410_0_0" index="0" speed="19.44" length="0.15" shape="1340.61,58.07 1340.57,58.05 1340.54,58.04 1340.51,58.03 1340.47,58.01"/>
    </edge>
    <edge id=":5822549411_0" function="internal">
        <lane id=":5822549411_0_0" index="0" speed="19.44" length="0.20" shape="1359.91,69.43 1359.87,69.38 1359.84,69.36 1359.80,69.33 1359.76,69.30"/>
    </edge>
    <edge id=":5822549412_0" function="internal">
        <lane id=":5822549412_0_0" index="0" speed="19.44" length="0.17" shape="1403.92,129.58 1403.88,129.54 1403.86,129.52 1403.84,129.49 1403.80,129.45"/>
    </edge>
    <edge id=":78519949_0" function="internal">
        <lane id=":78519949_0_0" index="0" speed="19.44" length="0.56" shape="6407.42,1096.55 6407.59,1096.56 6407.70,1096.55 6407.81,1096.53 6407.97,1096.49"/>
    </edge>
    <edge id=":78519950_0" function="internal">
        <lane id=":78519950_0_0" index="0" speed="19.44" length="0.27" shape="6388.79,1095.35 6388.87,1095.37 6388.93,1095.38 6388.98,1095.39 6389.06,1095.39"/>
    </edge>
    <edge id=":88060330_0" function="internal">
        <lane id=":88060330_0_0" index="0" speed="19.44" length="0.91" shape="1570.67,155.24 1570.54,155.01 1570.42,154.87 1570.27,154.76 1570.03,154.63"/>
    </edge>
    <edge id=":88060331_0" function="internal">
        <lane id=":88060331_0_0" index="0" speed="19.44" length="7.68" shape="1554.29,146.41 1552.32,145.24 1550.90,144.38 1549.41,143.98 1547.23,144.16"/>
    </edge>
    <edge id=":88060331_1" function="internal">
        <lane id=":88060331_1_0" index="0" speed="19.44" length="7.72" shape="1554.74,142.36 1547.23,144.16"/>
    </edge>
    <edge id=":88060331_2" function="internal">