<?xml version="1.0" encoding="UTF-8"?>

<configuration>
    <input>
        <net-file value="tiergarten.net.xml"/>
        <route-files value="teleport_tiergarten.rou.xml"/>
    </input>
    <time>
        <begin value="0"/>
        <end value="10000"/>
    </time>
</configuration>
