<?xml version="1.0" encoding="UTF-8"?>
<!--
  ~ Copyright (c) 2023 Fraunhofer FOKUS and others. All rights reserved.
  ~
  ~ See the NOTICE file(s) distributed with this work for additional
  ~ information regarding copyright ownership.
  ~
  ~ This program and the accompanying materials are made available under the
  ~ terms of the Eclipse Public License 2.0 which is available at
  ~ http://www.eclipse.org/legal/epl-2.0
  ~
  ~ SPDX-License-Identifier: EPL-2.0
  ~
  ~ Contact: mosaic@fokus.fraunhofer.de
  -->
<routes xmlns:xsi="http://www.w3.org/2001/XMLSchema-instance" xsi:noNamespaceSchemaLocation="http://sumo.dlr.de/xsd/routes_file.xsd">
    <vType id="TeleportVehicle"/>
    <route id="teleport_route" edges="4068038_251150126_428788319 4068038_428788319_408194194 4068038_408194194_423839224"/>
    <vehicle id="0" type="TeleportVehicle" depart="10" route="teleport_route">
        <stop edge="4068038_251150126_428788319" jump="15" endPos="10" duration="10"/>
        <stop edge="4068038_408194194_423839224" endPos="10" duration="10"/>
    </vehicle>
</routes>
