<connections>
	<connection from="951305435_8805417306_181099463" to="17490689_181099463_213483421" />
	<connection from="951305435_8805417306_181099463" to="221687252_181099463_181100179" />
	<connection from="951305435_8805417306_181099463" to="951305435_181099463_8805417306" />
	<connection from="829028256_82532069_7738631613" to="829028256_7738631613_82532069" />
	<connection from="128829578_4599156131_1422610080" to="128829577_1422610080_4599156149" />
	<connection from="128829578_4599156131_1422610080" to="92415403_1422610080_195961909" />
	<connection from="128828459_82661912_237932292" to="23908103_237932292_96049116" />
	<connection from="128828459_82661912_237932292" to="128828459_237932292_82661912" />
	<connection from="533466918_195953154_196138071" to="533466919_196138071_196223171" />
	<connection from="533466918_195953154_196138071" to="18950367_196138071_196222609" />
	<connection from="533349713_191209800_82625610" to="431771430_82625610_107932467" />
	<connection from="533349713_191209800_82625610" to="533349712_82625610_81834159" />
	<connection from="93250325_199458034_94300532" to="221539533_94300532_181104757" />
	<connection from="93250325_199458034_94300532" to="9973350_94300532_199456922" />
	<connection from="131270040_206148603_206133071" to="870422359_206133071_89184689" />
	<connection from="131270040_206148603_206133071" to="131270040_206133071_206133073" />
	<connection from="121176027_89184682_89139455" to="20420223_89139455_217886631" />
	<connection from="121176027_89184682_89139455" to="121176027_89139455_181166601" />
	<connection from="222045595_195937256_199354464" to="568818379_199354464_199354566" />
	<connection from="222045595_195937256_199354464" to="846774878_199354464_199354458" />
	<connection from="121035111_181166598_191173102" to="121035111_191173102_181166598" />
	<connection from="121035111_181166598_191173102" to="720090020_191173102_89139326" />
	<connection from="121035111_181166598_191173102" to="720090021_191173102_191173089" />
	<connection from="20280326_181109462_126868119" to="285542306_126868119_195723848" />
	<connection from="20280326_181109462_126868119" to="477066608_126868119_126868121" />
	<connection from="18905925_195814726_195578930" to="18905925_195578930_195867028" />
	<connection from="18905925_195814726_195578930" to="898593433_195578930_206105896" />
	<connection from="9972226_81888535_96050706" to="128829587_96050706_96050705" />
	<connection from="9972226_81888535_96050706" to="10046665_96050706_82528273" />
	<connection from="259864427_1436034205_2968378113" to="131315602_2968378113_8994477515" />
	<connection from="71179555_4973070072_82625391" to="504660430_82625391_82721354" />
	<connection from="71179555_4973070072_82625391" to="113531291_82625391_192898898" />
	<connection from="131354400_192919059_195594490" to="131354404_195594490_195599230" />
	<connection from="131354400_192919059_195594490" to="131354400_195594490_192919059" />
	<connection from="131354400_192919059_195594490" to="460242175_195594490_195926147" />
	<connection from="22816650_245467233_245467224" to="303398170_245467224_82529565" />
	<connection from="19214822_4467070287_314671747" to="28629957_314671747_314671748" />
	<connection from="19214822_4467070287_314671747" to="19214822_314671747_199458068" />
	<connection from="19251165_4574369706_217886683" to="19251165_217886683_181074110" />
	<connection from="37870768_96075136_96075113" to="22019986_96075113_92600035" />
	<connection from="37870768_96075136_96075113" to="37870768_96075113_96075112" />
	<connection from="22662665_243073935_243073936" to="261304675_243073936_1422573918" />
	<connection from="129787956_223647054_223629004" to="28629790_223629004_223629029" />
	<connection from="129787956_223647054_223629004" to="129787956_223629004_223647054" />
	<connection from="226301122_196138099_196222641" to="226301468_196222641_81614075" />
	<connection from="226301122_196138099_196222641" to="226301123_196222641_192900952" />
	<connection from="9973400_81903378_237086401" to="9973400_237086401_237086464" />
	<connection from="9973400_81903378_237086401" to="22010297_237086401_82532870" />
	<connection from="57204935_92605007_444616167" to="57204937_444616167_196235135" />
	<connection from="57204935_92605007_444616167" to="57204935_444616167_92605007" />
	<connection from="57204935_92605007_444616167" to="57204930_444616167_192015931" />
	<connection from="47413569_126873577_126873574" to="47034906_126873574_195590854" />
	<connection from="47413569_126873577_126873574" to="566501636_126873574_195600341" />
	<connection from="75104837_82627309_82527692" to="75104837_82527692_98231456" />
	<connection from="75104837_82627309_82527692" to="10046638_82527692_82527693" />
	<connection from="22662666_243073939_243073944" to="22662666_243073944_243073937" />
	<connection from="22662666_243073939_243073944" to="22662667_243073944_243073941" />
	<connection from="53876069_206148605_206134691" to="20280357_206134691_195600874" />
	<connection from="53876069_206148605_206134691" to="47059843_206134691_89184688" />
	<connection from="221561169_81859985_81860670" to="221561169_81860670_84561517" />
	<connection from="221561169_81859985_81860670" to="37935983_81860670_89329812" />
	<connection from="47396457_181069443_196137975" to="47396457_196137975_81832374" />
	<connection from="47396457_181069443_196137975" to="472796131_196137975_196137952" />
	<connection from="130351690_195937332_195937365" to="149824408_195937365_195937385" />
	<connection from="130351690_195937332_195937365" to="451243332_195937365_199456284" />
	<connection from="18687434_206148603_206133059" to="25925278_206133059_192919058" />
	<connection from="18687434_206148603_206133059" to="25925276_206133059_206133089" />
	<connection from="533479210_96075125_195776325" to="121035125_195776325_195776342" />
	<connection from="533479210_96075125_195776325" to="533479210_195776325_191869362" />
	<connection from="18950367_314695041_196138071" to="533466919_196138071_196223171" />
	<connection from="18950367_314695041_196138071" to="18950367_196138071_196222609" />
	<connection from="449720440_191869375_92611348" to="121035108_92611348_92601852" />
	<connection from="449720440_191869375_92611348" to="121035106_92611348_89138851" />
	<connection from="449720440_191869375_92611348" to="121035117_92611348_92611347" />
	<connection from="121035138_81892765_99278071" to="121035138_99278071_98249076" />
	<connection from="121035138_81892765_99278071" to="121035134_99278071_92602302" />
	<connection from="10426327_89140152_195937402" to="10426327_195937402_82662313" />
	<connection from="10426327_89140152_195937402" to="128828490_195937402_199456220" />
	<connection from="275137952_82626269_81614897" to="275137952_81614897_92604211" />
	<connection from="275137952_82626269_81614897" to="533352795_81614897_194486843" />
	<connection from="533174411_81834169_199483179" to="472796129_199483179_199483165" />
	<connection from="533174411_81834169_199483179" to="533174411_199483179_199483262" />
	<connection from="114352716_195491945_82625781" to="114352716_82625781_195491945" />
	<connection from="114352716_195491945_82625781" to="563777117_82625781_81551255" />
	<connection from="114352716_195491945_82625781" to="563777118_82625781_82625780" />
	<connection from="121035100_81830134_81830133" to="121035142_81830133_191896612" />
	<connection from="121035100_81830134_81830133" to="121035100_81830133_81830131" />
	<connection from="317468727_1422573849_237100587" to="221561173_237100587_96098668" />
	<connection from="317468727_1422573849_237100587" to="128824055_237100587_237100548" />
	<connection from="92404993_199456788_199456796" to="92404993_199456796_199456810" />
	<connection from="92404993_199456788_199456796" to="10800054_199456796_94300982" />
	<connection from="10426272_4477060206_196223076" to="18957584_196223076_81830147" />
	<connection from="10426272_4477060206_196223076" to="533479225_196223076_89184682" />
	<connection from="221693231_199456415_195937288" to="221687942_195937288_2305826861" />
	<connection from="221693231_199456415_195937288" to="221693238_195937288_213483230" />
	<connection from="473638150_82629109_82629105" to="9972248_82629105_82532189" />
	<connection from="473638150_82629109_82629105" to="473638150_82629105_82629103" />
	<connection from="53875131_1436034217_194441258" to="130351680_194441258_224019836" />
	<connection from="53875131_1436034217_194441258" to="259072197_194441258_195592516" />
	<connection from="846774878_199354458_181087722" to="378403622_181087722_199354560" />
	<connection from="846774878_199354458_181087722" to="846774878_181087722_199354640" />
	<connection from="20844664_206133040_223993597" to="75881405_223993597_206133041" />
	<connection from="20844664_206133040_223993597" to="167158690_223993597_206133049" />
	<connection from="17490773_195958140_195937317" to="17490773_195937317_181086463" />
	<connection from="17490773_195958140_195937317" to="92487482_195937317_195937259" />
	<connection from="226320709_245467204_1422610069" to="130348879_1422610069_89140149" />
	<connection from="226320709_245467204_1422610069" to="130348863_1422610069_1436010044" />
	<connection from="10046662_82527923_98231446" to="10046662_98231446_98231450" />
	<connection from="47098813_81551258_81551259" to="47099081_81551259_81551260" />
	<connection from="47098813_81551258_81551259" to="113531312_81551259_444616163" />
	<connection from="47098813_81551258_81551259" to="47098813_81551259_81551258" />
	<connection from="10257905_245467251_3077581416" to="671951511_3077581416_82532870" />
	<connection from="10257905_245467251_3077581416" to="10257905_3077581416_245467251" />
	<connection from="276148012_81603109_82721348" to="285542319_82721348_195754716" />
	<connection from="276148012_81603109_82721348" to="276148012_82721348_81551270" />
	<connection from="532250957_195814713_195576813" to="39843571_195576813_195576812" />
	<connection from="532250957_195814713_195576813" to="39843572_195576813_195596410" />
	<connection from="48098624_1268373211_3110362229" to="48098624_3110362229_194437519" />
	<connection from="206002919_213529767_193838810" to="206002919_193838810_195937180" />
	<connection from="734034569_206134694_680131474" to="53875148_680131474_680131463" />
	<connection from="186082010_195532750_192000855" to="113531311_192000855_194485150" />
	<connection from="186082010_195532750_192000855" to="563777116_192000855_264132265" />
	<connection from="53875128_680131335_195592515" to="47152971_195592515_195594487" />
	<connection from="53875128_680131335_195592515" to="53875128_195592515_195592513" />
	<connection from="23250088_251576058_206163540" to="711889044_206163540_6193837652" />
	<connection from="22277461_206133049_206133051" to="22277461_206133051_206133129" />
	<connection from="22277461_206133049_206133051" to="288729083_206133051_7174052564" />
	<connection from="128828500_98233374_89132666" to="165356880_89132666_82661914" />
	<connection from="128828500_98233374_89132666" to="165356949_89132666_96098666" />
	<connection from="46934501_92616211_92616210" to="46934501_92616210_92616211" />
	<connection from="46934501_92616211_92616210" to="121176037_92616210_81574358" />
	<connection from="230625808_199458091_82638856" to="47152970_82638856_181114848" />
	<connection from="259140709_81834156_81834158" to="259140710_81834158_107932467" />
	<connection from="259140709_81834156_81834158" to="259140709_81834158_81834159" />
	<connection from="335801176_237615873_237615933" to="335801178_237615933_81603352" />
	<connection from="335801176_237615873_237615933" to="18905925_237615933_81604126" />
	<connection from="165356880_89132666_82661914" to="258203475_82661914_1422573851" />
	<connection from="165356880_89132666_82661914" to="10059097_82661914_82662329" />
	<connection from="229030191_81888297_98232591" to="229030191_98232591_96048830" />
	<connection from="229030191_81888297_98232591" to="229030191_98232591_81888297" />
	<connection from="229030191_81888297_98232591" to="671951511_98232591_237086440" />
	<connection from="221561163_96098668_82661914" to="258203475_82661914_1422573851" />
	<connection from="221561163_96098668_82661914" to="10059097_82661914_82662329" />
	<connection from="221687939_199456340_195937288" to="221687942_195937288_2305826861" />
	<connection from="221687939_199456340_195937288" to="221693238_195937288_213483230" />
	<connection from="48098624_194437519_2472328425" to="48098624_2472328425_81834483" />
	<connection from="532838110_81603351_237615860" to="20280320_237615860_237615873" />
	<connection from="532838110_81603351_237615860" to="532838110_237615860_195723314" />
	<connection from="221690538_199457090_199457002" to="221690542_199457002_82638854" />
	<connection from="221690538_199457090_199457002" to="221690553_199457002_82638855" />
	<connection from="221690262_199457049_199456962" to="221690262_199456962_195937535" />
	<connection from="221690262_199457049_199456962" to="221688462_199456962_199456974" />
	<connection from="149981610_82648793_195961885" to="471623296_195961885_181087719" />
	<connection from="149981610_82648793_195961885" to="149981610_195961885_199354668" />
	<connection from="327524845_3343147518_3343147519" to="327524845_3343147519_3343147518" />
	<connection from="327524845_3343147518_3343147519" to="93250311_3343147519_223647149" />
	<connection from="121035142_191931716_89136181" to="47104783_89136181_89135914" />
	<connection from="121035142_191931716_89136181" to="47104784_89136181_199456540" />
	<connection from="533680260_181086461_195937304" to="92408047_195937304_193838813" />
	<connection from="533680260_181086461_195937304" to="92487482_195937304_195937317" />
	<connection from="18685828_194486338_192897708" to="317468729_192897708_92600039" />
	<connection from="18685828_194486338_192897708" to="317468722_192897708_81614083" />
	<connection from="28679900_81540882_4676874404" to="473611221_4676874404_7731974957" />
	<connection from="28679900_81540882_4676874404" to="28679900_4676874404_81540882" />
	<connection from="47034538_81604133_81604134" to="39843572_81604134_195867007" />
	<connection from="47034538_81604133_81604134" to="47034538_81604134_81604135" />
	<connection from="409060642_196223154_196223060" to="409060642_196223060_196223076" />
	<connection from="409060642_196223154_196223060" to="22697801_196223060_89139465" />
	<connection from="221693606_89140774_89140705" to="92487470_89140705_213484099" />
	<connection from="221693606_89140774_89140705" to="221693606_89140705_89140233" />
	<connection from="155495122_199457077_199456986" to="46936309_199456986_199457002" />
	<connection from="155495122_199457077_199456986" to="46934497_199456986_85414770" />
	<connection from="16265813_206133029_680353448" to="53901228_680353448_4187552048" />
	<connection from="48055247_243072882_196138247" to="18950371_196138247_196222850" />
	<connection from="48055247_243072882_196138247" to="48055247_196138247_89139821" />
	<connection from="648168789_2672860678_92602610" to="648168789_92602610_6135110351" />
	<connection from="648168789_2672860678_92602610" to="27806393_92602610_92602611" />
	<connection from="23652656_196222653_191195032" to="25925387_191195032_181113601" />
	<connection from="23652656_196222653_191195032" to="23652656_191195032_241878211" />
	<connection from="131354403_195595773_199475969" to="130807692_199475969_195597694" />
	<connection from="131354403_195595773_199475969" to="131354403_199475969_195595773" />
	<connection from="149824294_195953369_213483169" to="149824294_213483169_195953383" />
	<connection from="47372412_92601016_181074114" to="47372412_181074114_107928844" />
	<connection from="47372412_92601016_181074114" to="48114509_181074114_237148478" />
	<connection from="155495114_1678850805_8265647891" to="155495114_8265647891_1678850816" />
	<connection from="176605181_195776342_191869337" to="121035133_191869337_92602286" />
	<connection from="176605181_195776342_191869337" to="176605181_191869337_217886671" />
	<connection from="165356952_1043120745_249834972" to="217201636_249834972_249834970" />
	<connection from="71179538_81832373_81832372" to="507883629_81832372_81830150" />
	<connection from="184079419_199457892_165696092" to="75873148_165696092_199457460" />
	<connection from="184079419_199457892_165696092" to="75873150_165696092_600212690" />
	<connection from="60351401_750691694_750691697" to="221693236_750691697_89140172" />
	<connection from="375625710_81888297_237086422" to="166634027_237086422_81888948" />
	<connection from="375625710_81888297_237086422" to="375625710_237086422_81888297" />
	<connection from="261661747_199458023_81859995" to="18950367_81859995_314695041" />
	<connection from="261661747_199458023_81859995" to="47413214_81859995_81860665" />
	<connection from="472825678_82629103_245467338" to="472825678_245467338_81888536" />
	<connection from="472825678_82629103_245467338" to="22816658_245467338_245467326" />
	<connection from="130351689_89140151_82530014" to="128828496_82530014_1422610070" />
	<connection from="130351689_89140151_82530014" to="128828475_82530014_7368109577" />
	<connection from="47414712_206105996_206105997" to="47414712_206105997_206105998" />
	<connection from="226301122_196222898_196222624" to="226301122_196222624_196138079" />
	<connection from="226301122_196222898_196222624" to="47396444_196222624_89139818" />
	<connection from="534852689_81902340_82527923" to="534852689_82527923_444410788" />
	<connection from="534852689_81902340_82527923" to="534852689_82527923_81902340" />
	<connection from="534852689_81902340_82527923" to="10046662_82527923_98231446" />
	<connection from="507883625_81616450_4973070110" to="174573563_4973070110_195722715" />
	<connection from="20280357_206134691_195600874" to="303264734_195600874_206133070" />
	<connection from="20280357_206134691_195600874" to="126729005_195600874_206133057" />
	<connection from="113531304_92604176_92604211" to="317468718_92604211_195504938" />
	<connection from="113531304_92604176_92604211" to="317468721_92604211_195508514" />
	<connection from="10046978_82662317_82532191" to="226320708_82532191_193839794" />
	<connection from="533466919_196138071_196223171" to="533466919_196223171_195796078" />
	<connection from="533466919_196138071_196223171" to="47396455_196223171_196223172" />
	<connection from="129787956_223629004_223647054" to="129787956_223647054_223629004" />
	<connection from="48055257_196222930_89139466" to="48055258_89139466_89139488" />
	<connection from="532236874_8439866894_206133053" to="19784718_206133053_206133054" />
	<connection from="532236874_8439866894_206133053" to="284755813_206133053_206133025" />
	<connection from="221428175_2304523752_2153536891" to="48743383_2153536891_195953414" />
	<connection from="128828497_82662726_245467172" to="128828497_245467172_82532384" />
	<connection from="128828497_82662726_245467172" to="451195351_245467172_245467193" />
	<connection from="130351686_199456611_199456755" to="130351686_199456755_199456540" />
	<connection from="130351686_199456611_199456755" to="19214788_199456755_199456741" />
	<connection from="18907102_195723626_195605402" to="18907102_195605402_195898347" />
	<connection from="19209853_199354640_199354643" to="149824408_199354643_193838812" />
	<connection from="19209853_199354640_199354643" to="19209853_199354643_199354650" />
	<connection from="22816658_245467326_245467338" to="472825678_245467338_81888536" />
	<connection from="22816658_245467326_245467338" to="22816658_245467338_245467326" />
	<connection from="48055255_191869350_195776342" to="176605181_195776342_191869337" />
	<connection from="48055255_191869350_195776342" to="121035125_195776342_92612052" />
	<connection from="221687706_89141593_181101685" to="221686674_181101685_213483660" />
	<connection from="221687706_89141593_181101685" to="221687707_181101685_213483524" />
	<connection from="22816661_1426315214_245467366" to="471601148_245467366_199354533" />
	<connection from="46936290_2153536859_89140173" to="221688323_89140173_213483154" />
	<connection from="46936290_2153536859_89140173" to="221688764_89140173_2377278998" />
	<connection from="221688534_199456382_213605785" to="221688536_213605785_213605800" />
	<connection from="221688534_199456382_213605785" to="221687932_213605785_181097842" />
	<connection from="475206697_195599229_81604574" to="219554974_81604574_248005796" />
	<connection from="475206697_195599229_81604574" to="53875152_81604574_81604575" />
	<connection from="18950371_195593005_195592513" to="18950371_195592513_196138247" />
	<connection from="18950371_195593005_195592513" to="18957591_195592513_243072883" />
	<connection from="22700872_194122333_680353462" to="347351795_680353462_223629094" />
	<connection from="22700872_194122333_680353462" to="131270020_680353462_223629004" />
	<connection from="46936311_92616214_96075125" to="533479210_96075125_195776325" />
	<connection from="46936311_92616214_96075125" to="121035133_96075125_191869337" />
	<connection from="130351686_199456599_199456611" to="130351686_199456611_199456755" />
	<connection from="130351686_199456599_199456611" to="10800054_199456611_94300975" />
	<connection from="29094526_196222943_81601544" to="316893075_81601544_196222956" />
	<connection from="29094526_196222943_81601544" to="29094526_81601544_81830149" />
	<connection from="128828455_1422610060_4676994481" to="128828455_4676994481_3823797880" />
	<connection from="533479210_217886657_96075125" to="533479210_96075125_195776325" />
	<connection from="533479210_217886657_96075125" to="121035133_96075125_191869337" />
	<connection from="17490735_181100180_181100179" to="206452718_181100179_89140174" />
	<connection from="128828504_96098671_2108033003" to="221561168_2108033003_1422573850" />
	<connection from="261661747_96046444_191173145" to="232046310_191173145_191173155" />
	<connection from="261661747_96046444_191173145" to="261661747_191173145_191211213" />
	<connection from="232046310_181166596_191173125" to="232046310_191173125_191173135" />
	<connection from="232046310_181166596_191173125" to="10426273_191173125_191211224" />
	<connection from="240588978_1436034230_1267934321" to="275118454_1267934321_1436034205" />
	<connection from="221688178_195953344_199456382" to="221688177_199456382_199456340" />
	<connection from="221688178_195953344_199456382" to="221688534_199456382_213605785" />
	<connection from="387741268_199476094_81604577" to="387741269_81604577_196138340" />
	<connection from="387741268_199476094_81604577" to="53875152_81604577_81614072" />
	<connection from="47413213_191211288_92616211" to="46934503_92616211_191211253" />
	<connection from="47413213_191211288_92616211" to="121176038_92616211_92616212" />
	<connection from="47413213_191211288_92616211" to="46934501_92616211_92616210" />
	<connection from="22816649_245467204_245467214" to="22816649_245467214_245467204" />
	<connection from="22816649_245467204_245467214" to="128828470_245467214_3823797882" />
	<connection from="20280343_81604573_680131569" to="53875153_680131569_680131567" />
	<connection from="533466921_191195064_195796149" to="47152972_195796149_194441260" />
	<connection from="533466921_191195064_195796149" to="533466920_195796149_191195051" />
	<connection from="288729078_206133149_194136760" to="288729078_194136760_206133121" />
	<connection from="288729078_206133149_194136760" to="47521379_194136760_194136759" />
	<connection from="47372425_199475983_196222705" to="47396456_196222705_196138079" />
	<connection from="47372425_199475983_196222705" to="47396459_196222705_181071080" />
	<connection from="449772590_199456673_199456655" to="17491073_199456655_199456648" />
	<connection from="449772590_199456673_199456655" to="20185208_199456655_199456707" />
	<connection from="221688462_199456947_199456962" to="221690262_199456962_195937535" />
	<connection from="221688462_199456947_199456962" to="221688462_199456962_199456974" />
	<connection from="217203451_199457804_199475669" to="161010611_199475669_181113603" />
	<connection from="217203451_199457804_199475669" to="126149644_199475669_249834958" />
	<connection from="18771656_193840457_199456284" to="846774878_199456284_199354469" />
	<connection from="533481290_81830134_81892765" to="121035138_81892765_99278071" />
	<connection from="533481290_81830134_81892765" to="315098587_81892765_96075127" />
	<connection from="18822516_199483197_195723904" to="18822516_195723904_195723885" />
	<connection from="18822516_199483197_195723904" to="9940858_195723904_195723919" />
	<connection from="221560298_237953486_1422573866" to="19214846_1422573866_199457624" />
	<connection from="128824036_1422573848_4984115831" to="128824036_4984115831_1422573849" />
	<connection from="121176025_191211208_191173155" to="533680275_191173155_191173169" />
	<connection from="121176025_191211208_191173155" to="121176025_191173155_96046445" />
	<connection from="29094526_196234917_196234877" to="29094526_196234877_196234871" />
	<connection from="29094526_196234917_196234877" to="533391566_196234877_92611349" />
	<connection from="221560178_199457786_199457778" to="47259054_199457778_81574358" />
	<connection from="221560178_199457786_199457778" to="126149617_199457778_199457774" />
	<connection from="221560178_199457786_199457778" to="121176040_199457778_199457700" />
	<connection from="48743383_2153536891_195953414" to="48743385_195953414_193841286" />
	<connection from="48743383_2153536891_195953414" to="48743779_195953414_195953425" />
	<connection from="259072197_195592516_206134692" to="259072197_206134692_206134694" />
	<connection from="259072197_195592516_206134692" to="53875150_206134692_195594489" />
	<connection from="98230341_1422573900_4467070287" to="28628591_4467070287_6737789887" />
	<connection from="98230341_1422573900_4467070287" to="19214822_4467070287_314671747" />
	<connection from="98230341_1422573900_4467070287" to="93250326_4467070287_4467073413" />
	<connection from="149823126_81832382_194442090" to="47304451_194442090_194442490" />
	<connection from="149823126_81832382_194442090" to="47304445_194442090_81834168" />
	<connection from="221690261_195937535_195937506" to="92408032_195937506_3075639858" />
	<connection from="221689180_206134689_206148648" to="48800995_206148648_181084687" />
	<connection from="221689180_206134689_206148648" to="221689177_206148648_195953442" />
	<connection from="451195351_245467193_245467172" to="128828497_245467172_82532384" />
	<connection from="451195351_245467193_245467172" to="451195351_245467172_245467193" />
	<connection from="18906037_195867066_195867054" to="18906037_195867054_195590247" />
	<connection from="18822516_194437519_283330975" to="126149630_283330975_199476189" />
	<connection from="18822516_194437519_283330975" to="18822516_283330975_199482988" />
	<connection from="471601148_245467366_199354533" to="369953281_199354533_1426315213" />
	<connection from="471601148_245467366_199354533" to="471601148_199354533_199354543" />
	<connection from="130351686_199456755_199456540" to="93250278_199456540_96046448" />
	<connection from="451189788_81541128_3077545862" to="451189788_3077545862_81541128" />
	<connection from="451189788_81541128_3077545862" to="37886071_3077545862_82532185" />
	<connection from="128828505_96098668_96098666" to="165356949_96098666_237100548" />
	<connection from="128828505_96098668_96098666" to="128828505_96098666_94300523" />
	<connection from="25925271_195603812_192916936" to="25925272_192916936_195606636" />
	<connection from="25925271_195603812_192916936" to="18687434_192916936_195926176" />
	<connection from="206002919_213529614_213529767" to="206002919_213529767_193838810" />
	<connection from="130351692_2817087101_4556443506" to="130351692_4556443506_1436034231" />
	<connection from="17490773_199354466_195958140" to="17490773_195958140_195937317" />
	<connection from="17490773_199354466_195958140" to="149824408_195958140_193838813" />
	<connection from="451194307_1422620264_82528271" to="451194307_82528271_82530129" />
	<connection from="19217186_199476045_199482967" to="472800363_199482967_199476189" />
	<connection from="19217186_199476045_199482967" to="19217186_199482967_199482988" />
	<connection from="318034696_89132323_237100661" to="46936837_237100661_3077581426" />
	<connection from="318034696_89132323_237100661" to="46936832_237100661_82653739" />
	<connection from="318034696_89132323_237100661" to="318034696_237100661_89132323" />
	<connection from="28679897_82532185_82530267" to="28679897_82530267_96098665" />
	<connection from="28679897_82532185_82530267" to="10046806_82530267_3254582482" />
	<connection from="20847095_199457563_243073939" to="20847095_243073939_199457508" />
	<connection from="20847095_199457563_243073939" to="22662666_243073939_243073944" />
	<connection from="902177699_81603101_196137884" to="495100857_196137884_81614076" />
	<connection from="902177699_81603101_196137884" to="902177699_196137884_196138021" />
	<connection from="225032721_195723457_195723441" to="225032721_195723441_193830092" />
	<connection from="225032721_195723457_195723441" to="28680194_195723441_195723674" />
	<connection from="221693604_213483565_89140774" to="221693606_89140774_89140705" />
	<connection from="221687244_247105342_181099463" to="17490689_181099463_213483421" />
	<connection from="221687244_247105342_181099463" to="221687252_181099463_181100179" />
	<connection from="221687244_247105342_181099463" to="951305435_181099463_8805417306" />
	<connection from="22697802_181166600_191211878" to="22697802_191211878_191173074" />
	<connection from="22697802_181166600_191211878" to="720090022_191211878_191211853" />
	<connection from="121035130_89138851_89138850" to="47371238_89138850_99276428" />
	<connection from="121035130_89138851_89138850" to="121035131_89138850_96075115" />