<edges>
	<edge id="951305435_8805417306_181099463" from="8805417306" to="181099463" numLanes="1" shape="367053.07,6168257.19,0.00 367047.87,6168268.95,0.00" speed="11.11" />
	<edge id="829028256_82532069_7738631613" from="82532069" to="7738631613" numLanes="1" shape="366379.59,6170262.98,0.00 366394.96,6170259.26,0.00" speed="8.33" />
	<edge id="128829578_4599156131_1422610080" from="4599156131" to="1422610080" numLanes="2" shape="366280.49,6169868.85,0.00 366278.19,6169866.65,0.00 366263.48,6169852.57,0.00" speed="16.67" />
	<edge id="128828459_82661912_237932292" from="82661912" to="237932292" numLanes="1" shape="366776.22,6170800.79,0.00 366842.63,6170859.09,0.00" speed="16.67" />
	<edge id="533466918_195953154_196138071" from="195953154" to="196138071" numLanes="2" shape="369007.97,6170117.69,0.00 369024.73,6170259.59,0.00" speed="5.56" />
	<edge id="533349713_191209800_82625610" from="191209800" to="82625610" numLanes="2" shape="371144.10,6171326.83,0.00 371222.11,6171255.23,0.00 371231.15,6171251.18,0.00" speed="5.56" />
	<edge id="93250325_199458034_94300532" from="199458034" to="94300532" numLanes="2" shape="367955.28,6169651.35,0.00 367953.73,6169676.06,0.00 367952.89,6169689.27,0.00 367952.27,6169699.12,0.00 367951.44,6169705.02,0.00 367950.34,6169710.27,0.00 367939.61,6169719.87,0.00" speed="11.11" />
	<edge id="131270040_206148603_206133071" from="206148603" to="206133071" numLanes="2" shape="369403.85,6168630.07,0.00 369411.65,6168513.18,0.00" speed="8.33" />
	<edge id="131270029_195926204_89184679" from="195926204" to="89184679" numLanes="2" shape="369452.94,6167440.04,0.00 369468.02,6167367.12,0.00 369482.73,6167296.41,0.00" speed="11.11" />
	<edge id="121176027_89184682_89139455" from="89184682" to="89139455" numLanes="4" shape="369196.86,6170627.35,0.00 369190.00,6170626.62,0.00 369181.84,6170624.25,0.00" speed="13.89" />
	<edge id="222045595_195937256_199354464" from="195937256" to="199354464" numLanes="2" shape="366423.55,6169357.38,0.00 366334.15,6169504.73,0.00" speed="8.33" />
	<edge id="121035111_181166598_191173102" from="181166598" to="191173102" numLanes="3" shape="368753.82,6170935.09,0.00 368655.97,6170857.86,0.00" speed="16.67" />
	<edge id="20280326_181109462_126868119" from="181109462" to="126868119" numLanes="2" shape="371335.07,6169311.96,0.00 371328.35,6169432.84,0.00 371327.10,6169451.23,0.00" speed="5.56" />
	<edge id="18905925_195814726_195578930" from="195814726" to="195578930" numLanes="2" shape="371749.08,6168370.60,0.00 371757.93,6168264.46,0.00 371758.71,6168257.38,0.00 371761.05,6168247.58,0.00" speed="11.11" />
	<edge id="9972226_81888535_96050706" from="81888535" to="96050706" numLanes="2" shape="366189.25,6170711.77,0.00 366156.88,6170589.17,0.00 366151.34,6170568.14,0.00" speed="8.33" />
	<edge id="259864427_1436034205_2968378113" from="1436034205" to="2968378113" numLanes="2" shape="370827.57,6169396.29,0.00 370832.59,6169398.55,0.00 370837.66,6169400.26,0.00 370845.27,6169402.36,0.00 370863.77,6169404.43,0.00 370889.24,6169407.18,0.00" speed="11.11" />
	<edge id="71179555_4973070072_82625391" from="4973070072" to="82625391" numLanes="3" shape="371538.78,6170470.15,0.00 371533.58,6170471.08,0.00 371526.95,6170472.28,0.00" speed="13.89" />
	<edge id="131354400_192919059_195594490" from="192919059" to="195594490" numLanes="1" shape="369934.90,6168813.59,0.00 369947.46,6168814.72,0.00 370034.73,6168850.10,0.00 370047.05,6168855.37,0.00 370066.14,6168863.51,0.00" speed="16.67" />
	<edge id="22816650_245467233_245467224" from="245467233" to="245467224" numLanes="2" shape="366601.59,6170358.59,0.00 366535.34,6170442.02,0.00" speed="11.11" />
	<edge id="19214822_4467070287_314671747" from="4467070287" to="314671747" numLanes="2" shape="368087.83,6169656.55,0.00 368083.23,6169642.64,0.00 368085.43,6169589.10,0.00" speed="11.11" />
	<edge id="19251165_4574369706_217886683" from="4574369706" to="217886683" numLanes="2" shape="369957.41,6171566.69,0.00 369947.29,6171551.76,0.00 369942.24,6171543.69,0.00 369923.78,6171515.10,0.00" speed="11.11" />
	<edge id="37870768_96075136_96075113" from="96075136" to="96075113" numLanes="2" shape="369111.35,6171716.28,0.00 369204.15,6171643.00,0.00" speed="11.11" />
	<edge id="22662665_243073935_243073936" from="243073935" to="243073936" numLanes="2" shape="368517.87,6168990.53,0.00 368471.69,6169137.52,0.00" speed="11.11" />
	<edge id="129787956_223647054_223629004" from="223647054" to="223629004" numLanes="1" shape="368424.48,6168671.55,0.00 368416.10,6168694.15,0.00" speed="11.11" />
	<edge id="226301122_196138099_196222641" from="196138099" to="196222641" numLanes="2" shape="370113.80,6170136.89,0.00 370210.37,6170108.96,0.00" speed="8.33" />
	<edge id="9973400_81903378_237086401" from="81903378" to="237086401" numLanes="1" shape="366477.62,6170909.70,0.00 366556.91,6170838.44,0.00" speed="11.11" />
	<edge id="57204935_92605007_444616167" from="92605007" to="444616167" numLanes="3" shape="370958.61,6171339.18,0.00 370919.64,6171385.17,0.00 370899.16,6171409.86,0.00 370883.71,6171428.49,0.00" speed="16.67" />
	<edge id="47413569_126873577_126873574" from="126873577" to="126873574" numLanes="2" shape="370895.48,6168581.74,0.00 370883.98,6168717.30,0.00 370880.95,6168740.53,0.00" speed="11.11" />
	<edge id="75104837_82627309_82527692" from="82627309" to="82527692" numLanes="2" shape="366807.65,6170955.77,0.00 366893.84,6171052.98,0.00" speed="11.11" />
	<edge id="22662666_243073939_243073944" from="243073939" to="243073944" numLanes="2" shape="368709.99,6169176.32,0.00 368640.93,6169142.41,0.00" speed="11.11" />
	<edge id="53876069_206148605_206134691" from="206148605" to="206134691" numLanes="2" shape="369298.15,6169046.19,0.00 369351.76,6168949.97,0.00 369353.41,6168946.39,0.00 369355.50,6168941.91,0.00 369356.54,6168938.52,0.00 369357.62,6168934.04,0.00 369358.82,6168927.54,0.00" speed="11.11" />
	<edge id="221561169_81859985_81860670" from="81859985" to="81860670" numLanes="2" shape="367880.51,6171427.70,0.00 367792.71,6171339.95,0.00" speed="11.11" />
	<edge id="47396457_181069443_196137975" from="181069443" to="196137975" numLanes="2" shape="370144.17,6170353.03,0.00 370148.14,6170470.11,0.00 370148.62,6170484.18,0.00" speed="11.11" />
	<edge id="130351690_195937332_195937365" from="195937332" to="195937365" numLanes="2" shape="366807.97,6169499.70,0.00 366747.41,6169570.63,0.00" speed="11.11" />
	<edge id="18687434_206148603_206133059" from="206148603" to="206133059" numLanes="2" shape="369403.85,6168630.07,0.00 369511.61,6168639.69,0.00 369535.18,6168641.19,0.00 369550.55,6168641.91,0.00" speed="11.11" />
	<edge id="533479210_96075125_195776325" from="96075125" to="195776325" numLanes="2" shape="369120.25,6171104.25,0.00 369222.23,6171191.48,0.00" speed="11.11" />
	<edge id="18950367_314695041_196138071" from="314695041" to="196138071" numLanes="2" shape="368880.60,6170275.75,0.00 369024.73,6170259.59,0.00" speed="8.33" />
	<edge id="449720440_191869375_92611348" from="191869375" to="92611348" numLanes="2" shape="369397.17,6171337.68,0.00 369327.42,6171403.94,0.00" speed="11.11" />
	<edge id="121035138_81892765_99278071" from="81892765" to="99278071" numLanes="2" shape="368548.33,6171396.94,0.00 368660.16,6171489.57,0.00" speed="8.33" />
	<edge id="10426327_89140152_195937402" from="89140152" to="195937402" numLanes="2" shape="366425.89,6169833.02,0.00 366571.59,6169949.80,0.00" speed="11.11" />
	<edge id="275137952_82626269_81614897" from="82626269" to="81614897" numLanes="2" shape="371055.79,6171059.99,0.00 370951.10,6171125.70,0.00" speed="11.11" />
	<edge id="533174411_81834169_199483179" from="81834169" to="199483179" numLanes="1" shape="371017.26,6170333.81,0.00 370990.44,6170236.16,0.00" speed="8.33" />
	<edge id="114352716_195491945_82625781" from="195491945" to="82625781" numLanes="2" shape="371476.56,6171247.39,0.00 371496.70,6171302.62,0.00 371512.88,6171347.02,0.00 371516.04,6171355.70,0.00" speed="16.67" />
	<edge id="121035100_81830134_81830133" from="81830134" to="81830133" numLanes="4" shape="368462.53,6171328.45,0.00 368374.54,6171397.04,0.00" speed="16.67" />
	<edge id="317468727_1422573849_237100587" from="1422573849" to="237100587" numLanes="2" shape="367243.80,6170687.66,0.00 367184.58,6170751.49,0.00" speed="11.11" />
	<edge id="92404993_199456788_199456796" from="199456788" to="199456796" numLanes="2" shape="367368.87,6169679.61,0.00 367455.04,6169751.10,0.00" speed="11.11" />
	<edge id="10426272_4477060206_196223076" from="4477060206" to="196223076" numLanes="4" shape="369446.75,6170636.29,0.00 369442.94,6170636.12,0.00 369434.80,6170636.00,0.00 369365.64,6170633.18,0.00 369357.66,6170632.92,0.00 369332.16,6170631.61,0.00" speed="13.89" />
	<edge id="221693231_199456415_195937288" from="199456415" to="195937288" numLanes="2" shape="366680.19,6169057.21,0.00 366673.36,6169053.20,0.00 366624.97,6169024.78,0.00" speed="16.67" />
	<edge id="473638150_82629109_82629105" from="82629109" to="82629105" numLanes="2" shape="366320.67,6170011.94,0.00 366244.17,6170030.64,0.00 366168.31,6170049.39,0.00" speed="11.11" />
	<edge id="53875131_1436034217_194441258" from="1436034217" to="194441258" numLanes="3" shape="369683.88,6169319.62,0.00 369685.80,6169307.44,0.00" speed="16.67" />
	<edge id="846774878_199354458_181087722" from="199354458" to="181087722" numLanes="2" shape="366233.12,6169446.91,0.00 366124.22,6169381.79,0.00" speed="8.33" />
	<edge id="20844664_206133040_223993597" from="206133040" to="223993597" numLanes="2" shape="368888.93,6168664.89,0.00 368882.08,6168643.46,0.00 368939.89,6168474.67,0.00" speed="11.11" />
	<edge id="17490773_195958140_195937317" from="195958140" to="195937317" numLanes="2" shape="366533.26,6169421.45,0.00 366585.82,6169333.94,0.00" speed="11.11" />
	<edge id="226320709_245467204_1422610069" from="245467204" to="1422610069" numLanes="2" shape="366872.30,6170195.27,0.00 366923.80,6170238.77,0.00" speed="11.11" />
	<edge id="10046662_82527923_98231446" from="82527923" to="98231446" numLanes="2" shape="366725.86,6171351.63,0.00 366808.72,6171280.52,0.00" speed="11.11" />
	<edge id="47098813_81551258_81551259" from="81551258" to="81551259" numLanes="2" shape="371445.33,6171158.39,0.00 371428.72,6171112.36,0.00 371422.29,6171094.56,0.00 371404.84,6171046.23,0.00 371400.12,6171033.13,0.00" speed="16.67" />
	<edge id="10257905_245467251_3077581416" from="245467251" to="3077581416" numLanes="1" shape="366417.51,6170806.30,0.00 366453.07,6170773.11,0.00" speed="11.11" />
	<edge id="276148012_81603109_82721348" from="81603109" to="82721348" numLanes="1" shape="371415.71,6170187.06,0.00 371299.05,6170200.53,0.00" speed="8.33" />
	<edge id="532250957_195814713_195576813" from="195814713" to="195576813" numLanes="2" shape="370664.16,6168154.96,0.00 370645.66,6168294.27,0.00" speed="11.11" />
	<edge id="48098624_1268373211_3110362229" from="1268373211" to="3110362229" numLanes="2" shape="371075.50,6169555.72,0.00 371057.86,6169551.96,0.00 370996.12,6169547.68,0.00" speed="8.33" />
	<edge id="206002919_213529767_193838810" from="213529767" to="193838810" numLanes="2" shape="365163.96,6168584.25,0.00 365266.01,6168651.87,0.00 365369.02,6168720.13,0.00 365466.07,6168784.44,0.00" speed="11.11" />
	<edge id="734034569_206134694_680131474" from="206134694" to="680131474" numLanes="1" shape="370043.77,6169341.78,0.00 370038.32,6169407.02,0.00" speed="11.11" />
	<edge id="186082010_195532750_192000855" from="195532750" to="192000855" numLanes="2" shape="371660.72,6171072.76,0.00 371648.11,6171027.08,0.00 371634.97,6170980.56,0.00 371629.53,6170963.51,0.00" speed="11.11" />
	<edge id="53875128_680131335_195592515" from="680131335" to="195592515" numLanes="2" shape="369808.35,6169365.53,0.00 369805.35,6169395.60,0.00 369803.70,6169410.02,0.00 369802.00,6169424.10,0.00 369798.79,6169450.76,0.00" speed="5.56" />
	<edge id="23250088_251576058_206163540" from="251576058" to="206163540" numLanes="2" shape="367868.86,6168100.14,0.00 367880.84,6168095.43,0.00 367883.91,6168092.14,0.00 367889.78,6168061.26,0.00" speed="11.11" />
	<edge id="22277461_206133049_206133051" from="206133049" to="206133051" numLanes="2" shape="368884.21,6168466.47,0.00 368906.99,6168333.74,0.00" speed="8.33" />
	<edge id="128828500_98233374_89132666" from="98233374" to="89132666" numLanes="2" shape="366812.86,6170552.99,0.00 366921.59,6170651.43,0.00" speed="11.11" />
	<edge id="46934501_92616211_92616210" from="92616211" to="92616210" numLanes="3" shape="368267.14,6170543.40,0.00 368248.41,6170528.86,0.00 368239.17,6170521.13,0.00 368227.13,6170511.40,0.00 368176.88,6170472.35,0.00" speed="16.67" />
	<edge id="230625808_199458091_82638856" from="199458091" to="82638856" numLanes="2" shape="367821.83,6169511.12,0.00 367824.03,6169454.80,0.00 367822.82,6169438.00,0.00" speed="11.11" />
	<edge id="259140709_81834156_81834158" from="81834156" to="81834158" numLanes="2" shape="371386.09,6171419.75,0.00 371383.46,6171404.48,0.00 371356.34,6171295.70,0.00" speed="8.33" />
	<edge id="335801176_237615873_237615933" from="237615873" to="237615933" numLanes="3" shape="371636.58,6168830.01,0.00 371711.20,6168834.34,0.00" speed="16.67" />
	<edge id="165356880_89132666_82661914" from="89132666" to="82661914" numLanes="2" shape="366921.59,6170651.43,0.00 366979.75,6170589.80,0.00 366991.14,6170575.63,0.00" speed="11.11" />
	<edge id="229030191_81888297_98232591" from="81888297" to="98232591" numLanes="1" shape="366534.70,6170589.77,0.00 366595.15,6170645.60,0.00" speed="16.67" />
	<edge id="221561163_96098668_82661914" from="96098668" to="82661914" numLanes="2" shape="367088.66,6170662.43,0.00 366991.14,6170575.63,0.00" speed="11.11" />
	<edge id="221687939_199456340_195937288" from="199456340" to="195937288" numLanes="2" shape="366678.80,6168933.71,0.00 366624.97,6169024.78,0.00" speed="8.33" />
	<edge id="48098624_194437519_2472328425" from="194437519" to="2472328425" numLanes="2" shape="370931.60,6169543.22,0.00 370891.71,6169541.19,0.00" speed="8.33" />
	<edge id="532838110_81603351_237615860" from="81603351" to="237615860" numLanes="1" shape="371748.29,6168972.15,0.00 371623.82,6168963.47,0.00" speed="11.11" />
	<edge id="221690538_199457090_199457002" from="199457090" to="199457002" numLanes="2" shape="367735.44,6169307.17,0.00 367664.32,6169414.62,0.00" speed="11.11" />
	<edge id="221690262_199457049_199456962" from="199457049" to="199456962" numLanes="2" shape="367293.41,6169097.84,0.00 367237.16,6169213.76,0.00" speed="11.11" />
	<edge id="149981610_82648793_195961885" from="82648793" to="195961885" numLanes="2" shape="365802.42,6169725.81,0.00 365751.83,6169848.47,0.00" speed="16.67" />
	<edge id="327524845_3343147518_3343147519" from="3343147518" to="3343147519" numLanes="2" shape="368221.49,6168551.60,0.00 368230.30,6168530.41,0.00" speed="16.67" />
	<edge id="121035142_191931716_89136181" from="191931716" to="89136181" numLanes="1" shape="367251.22,6170488.82,0.00 367162.41,6170397.67,0.00" speed="11.11" />
	<edge id="533680260_181086461_195937304" from="181086461" to="195937304" numLanes="2" shape="366766.95,6169296.64,0.00 366694.70,6169407.83,0.00" speed="5.56" />
	<edge id="18685828_194486338_192897708" from="194486338" to="192897708" numLanes="2" shape="370590.15,6171243.62,0.00 370550.08,6171167.23,0.00" speed="11.11" />
	<edge id="28679900_81540882_4676874404" from="81540882" to="4676874404" numLanes="2" shape="365759.48,6170736.93,0.00 365743.15,6170735.80,0.00 365725.08,6170734.96,0.00 365703.41,6170733.10,0.00 365675.67,6170728.39,0.00 365648.97,6170722.01,0.00" speed="16.67" />
	<edge id="47034538_81604133_81604134" from="81604133" to="81604134" numLanes="2" shape="370783.48,6168567.35,0.00 370750.15,6168566.62,0.00 370738.16,6168566.37,0.00 370641.98,6168564.25,0.00" speed="11.11" />
	<edge id="409060642_196223154_196223060" from="196223154" to="196223060" numLanes="1" shape="369305.10,6170363.87,0.00 369317.90,6170485.12,0.00" speed="11.11" />
	<edge id="221693606_89140774_89140705" from="89140774" to="89140705" numLanes="2" shape="365928.88,6168292.45,0.00 365915.89,6168313.52,0.00" speed="16.67" />
	<edge id="155495122_199457077_199456986" from="199457077" to="199456986" numLanes="3" shape="367641.54,6169266.67,0.00 367635.96,6169275.19,0.00 367569.62,6169372.51,0.00" speed="16.67" />
	<edge id="16265813_206133029_680353448" from="206133029" to="680353448" numLanes="1" shape="368586.34,6168658.52,0.00 368585.36,6168660.89,0.00 368565.02,6168710.34,0.00" speed="11.11" />
	<edge id="48055247_243072882_196138247" from="243072882" to="196138247" numLanes="2" shape="369676.53,6169655.69,0.00 369672.77,6169591.80,0.00" speed="16.67" />
	<edge id="648168789_2672860678_92602610" from="2672860678" to="92602610" numLanes="2" shape="368032.02,6171372.65,0.00 368040.93,6171386.11,0.00 368048.82,6171401.50,0.00 368053.94,6171416.70,0.00 368069.52,6171476.40,0.00" speed="16.67" />
	<edge id="23652656_196222653_191195032" from="196222653" to="191195032" numLanes="2" shape="368960.83,6169592.58,0.00 368963.38,6169724.53,0.00" speed="11.11" />
	<edge id="131354403_195595773_199475969" from="195595773" to="199475969" numLanes="1" shape="370415.22,6169007.72,0.00 370449.36,6169023.79,0.00" speed="16.67" />
	<edge id="149824294_195953369_213483169" from="195953369" to="213483169" numLanes="2" shape="366912.71,6168765.37,0.00 366974.94,6168654.86,0.00" speed="11.11" />
	<edge id="47372412_92601016_181074114" from="92601016" to="181074114" numLanes="2" shape="369558.39,6171474.75,0.00 369644.26,6171542.60,0.00" speed="11.11" />
	<edge id="155495114_1678850805_8265647891" from="1678850805" to="8265647891" numLanes="3" shape="367695.64,6169154.61,0.00 367702.68,6169143.62,0.00 367731.79,6169098.22,0.00 367756.29,6169059.99,0.00" speed="16.67" />
	<edge id="176605181_195776342_191869337" from="195776342" to="191869337" numLanes="2" shape="369304.20,6171110.45,0.00 369208.92,6171030.03,0.00" speed="8.33" />
	<edge id="165356952_1043120745_249834972" from="1043120745" to="249834972" numLanes="2" shape="368165.22,6169808.65,0.00 368171.62,6169815.05,0.00 368177.87,6169820.28,0.00 368182.01,6169823.40,0.00 368183.60,6169824.78,0.00 368187.24,6169827.90,0.00" speed="8.33" />
	<edge id="71179538_81832373_81832372" from="81832373" to="81832372" numLanes="3" shape="370037.36,6170641.28,0.00 369883.70,6170642.58,0.00" speed="13.89" />
	<edge id="184079419_199457892_165696092" from="199457892" to="165696092" numLanes="2" shape="368368.32,6169236.76,0.00 368336.51,6169362.15,0.00 368333.81,6169372.58,0.00 368325.97,6169404.04,0.00" speed="11.11" />
	<edge id="60351401_750691694_750691697" from="750691694" to="750691697" numLanes="2" shape="366825.97,6169350.06,0.00 366912.04,6169214.15,0.00" speed="11.11" />
	<edge id="375625710_81888297_237086422" from="81888297" to="237086422" numLanes="2" shape="366534.70,6170589.77,0.00 366492.15,6170606.16,0.00" speed="16.67" />
	<edge id="261661747_199458023_81859995" from="199458023" to="81859995" numLanes="1" shape="368742.80,6170347.23,0.00 368779.36,6170297.51,0.00" speed="8.33" />
	<edge id="472825678_82629103_245467338" from="82629103" to="245467338" numLanes="2" shape="366032.61,6170082.27,0.00 366013.98,6170007.17,0.00" speed="11.11" />
	<edge id="130351689_89140151_82530014" from="89140151" to="82530014" numLanes="2" shape="366746.44,6170092.42,0.00 366676.32,6170184.72,0.00" speed="11.11" />
	<edge id="47414712_206105996_206105997" from="206105996" to="206105997" numLanes="2" shape="370822.37,6167929.34,0.00 370834.20,6167807.84,0.00" speed="11.11" />
	<edge id="226301122_196222898_196222624" from="196222898" to="196222624" numLanes="2" shape="369574.95,6170201.30,0.00 369721.49,6170185.09,0.00" speed="8.33" />
	<edge id="534852689_81902340_82527923" from="81902340" to="82527923" numLanes="1" shape="366651.82,6171263.92,0.00 366708.17,6171330.67,0.00 366715.42,6171339.26,0.00 366725.86,6171351.63,0.00" speed="16.67" />
	<edge id="507883625_81616450_4973070110" from="81616450" to="4973070110" numLanes="2" shape="371738.98,6170450.12,0.00 371736.23,6170458.34,0.00" speed="8.33" />
	<edge id="20280357_206134691_195600874" from="206134691" to="195600874" numLanes="2" shape="369358.82,6168927.54,0.00 369362.40,6168908.77,0.00 369372.94,6168857.98,0.00" speed="5.56" />
	<edge id="113531304_92604176_92604211" from="92604176" to="92604211" numLanes="2" shape="370891.48,6171244.21,0.00 370848.64,6171185.61,0.00 370844.36,6171180.78,0.00" speed="11.11" />
	<edge id="10046978_82662317_82532191" from="82662317" to="82532191" numLanes="2" shape="366478.25,6170246.53,0.00 366409.14,6170183.66,0.00 366403.39,6170176.09,0.00 366401.72,6170169.67,0.00 366400.53,6170161.89,0.00 366400.25,6170149.03,0.00 366400.50,6170138.86,0.00" speed="11.11" />
	<edge id="533466919_196138071_196223171" from="196138071" to="196223171" numLanes="2" shape="369024.73,6170259.59,0.00 369038.74,6170391.80,0.00" speed="11.11" />
	<edge id="129787956_223629004_223647054" from="223629004" to="223647054" numLanes="1" shape="368416.10,6168694.15,0.00 368424.48,6168671.55,0.00" speed="11.11" />
	<edge id="47099082_195571465_195796152" from="195571465" to="195796152" numLanes="2" shape="371872.22,6169240.91,0.00 371986.41,6169252.02,0.00" speed="11.11" />
	<edge id="48055257_196222930_89139466" from="196222930" to="89139466" numLanes="2" shape="369602.06,6170466.95,0.00 369748.82,6170449.98,0.00" speed="11.11" />
	<edge id="532236874_8439866894_206133053" from="8439866894" to="206133053" numLanes="4" shape="368782.55,6168606.97,0.00 368775.39,6168603.01,0.00" speed="16.67" />
	<edge id="221428175_2304523752_2153536891" from="2304523752" to="2153536891" numLanes="2" shape="367439.24,6168588.15,0.00 367412.64,6168588.15,0.00" speed="11.11" />
	<edge id="128828497_82662726_245467172" from="82662726" to="245467172" numLanes="2" shape="366628.34,6170240.85,0.00 366592.34,6170289.21,0.00" speed="11.11" />
	<edge id="130351686_199456611_199456755" from="199456611" to="199456755" numLanes="2" shape="367072.88,6170226.51,0.00 367161.39,6170298.82,0.00" speed="11.11" />
	<edge id="18907102_195723626_195605402" from="195723626" to="195605402" numLanes="2" shape="369779.32,6167863.02,0.00 369778.12,6168037.15,0.00" speed="11.11" />
	<edge id="19209853_199354640_199354643" from="199354640" to="199354643" numLanes="1" shape="366066.15,6169342.01,0.00 366146.25,6169204.85,0.00" speed="11.11" />
	<edge id="22816658_245467326_245467338" from="245467326" to="245467338" numLanes="1" shape="365878.10,6170040.50,0.00 366013.98,6170007.17,0.00" speed="11.11" />
	<edge id="48055255_191869350_195776342" from="191869350" to="195776342" numLanes="2" shape="369386.47,6171183.18,0.00 369306.01,6171112.03,0.00 369304.20,6171110.45,0.00" speed="8.33" />
	<edge id="221687706_89141593_181101685" from="89141593" to="181101685" numLanes="2" shape="366406.69,6168275.06,0.00 366400.02,6168292.85,0.00" speed="11.11" />
	<edge id="22816661_1426315214_245467366" from="1426315214" to="245467366" numLanes="1" shape="365707.78,6169364.99,0.00 365629.83,6169481.44,0.00" speed="11.11" />
	<edge id="46936290_2153536859_89140173" from="2153536859" to="89140173" numLanes="2" shape="367038.77,6168606.24,0.00 367120.44,6168602.26,0.00 367139.68,6168602.07,0.00" speed="11.11" />
	<edge id="221688534_199456382_213605785" from="199456382" to="213605785" numLanes="2" shape="366746.22,6168821.66,0.00 366680.58,6168787.00,0.00" speed="11.11" />
	<edge id="475206697_195599229_81604574" from="195599229" to="81604574" numLanes="4" shape="370035.02,6169451.93,0.00 370150.07,6169456.00,0.00 370165.79,6169456.23,0.00" speed="11.11" />
	<edge id="18950371_195593005_195592513" from="195593005" to="195592513" numLanes="2" shape="369923.69,6169592.74,0.00 369807.18,6169591.23,0.00" speed="8.33" />
	<edge id="22700872_194122333_680353462" from="194122333" to="680353462" numLanes="2" shape="368204.98,6168612.96,0.00 368213.58,6168616.25,0.00 368313.16,6168654.30,0.00" speed="11.11" />
	<edge id="46936311_92616214_96075125" from="92616214" to="96075125" numLanes="2" shape="369041.20,6171166.54,0.00 369120.25,6171104.25,0.00" speed="11.11" />
	<edge id="18905925_195581626_195588777" from="195581626" to="195588777" numLanes="2" shape="371825.09,6167997.57,0.00 371852.56,6167882.41,0.00 371860.00,6167851.20,0.00" speed="11.11" />
	<edge id="130351686_199456599_199456611" from="199456599" to="199456611" numLanes="2" shape="366998.69,6170167.26,0.00 367072.88,6170226.51,0.00" speed="11.11" />
	<edge id="29094526_196222943_81601544" from="196222943" to="81601544" numLanes="2" shape="369663.31,6170908.69,0.00 369645.65,6170792.60,0.00" speed="8.33" />
	<edge id="128828455_1422610060_4676994481" from="1422610060" to="4676994481" numLanes="2" shape="366801.78,6170398.05,0.00 366814.12,6170381.65,0.00" speed="16.67" />
	<edge id="533479210_217886657_96075125" from="217886657" to="96075125" numLanes="2" shape="369032.90,6171031.53,0.00 369120.25,6171104.25,0.00" speed="11.11" />
	<edge id="17490735_181100180_181100179" from="181100180" to="181100179" numLanes="2" shape="367125.09,6168436.67,0.00 367163.81,6168330.60,0.00" speed="11.11" />
	<edge id="128828504_96098671_2108033003" from="96098671" to="2108033003" numLanes="2" shape="367155.52,6170590.14,0.00 367150.26,6170595.75,0.00" speed="11.11" />
	<edge id="261661747_96046444_191173145" from="96046444" to="191173145" numLanes="1" shape="368148.10,6171095.44,0.00 368220.96,6171004.61,0.00" speed="8.33" />
	<edge id="232046310_181166596_191173125" from="181166596" to="191173125" numLanes="1" shape="368512.25,6171234.45,0.00 368416.64,6171159.70,0.00" speed="11.11" />
	<edge id="261840989_206133192_3773152438" from="206133192" to="3773152438" numLanes="4" shape="367591.70,6167951.19,0.00 367570.99,6167936.81,0.00 367564.72,6167931.13,0.00" speed="16.67" />
	<edge id="240588978_1436034230_1267934321" from="1436034230" to="1267934321" numLanes="2" shape="370841.35,6169283.60,0.00 370829.71,6169297.30,0.00 370824.42,6169306.33,0.00" speed="13.89" />
	<edge id="221688178_195953344_199456382" from="195953344" to="199456382" numLanes="2" shape="366815.21,6168714.61,0.00 366756.82,6168805.21,0.00 366746.22,6168821.66,0.00" speed="8.33" />
	<edge id="387741268_199476094_81604577" from="199476094" to="81604577" numLanes="2" shape="370263.50,6169755.52,0.00 370201.92,6169767.23,0.00 370187.51,6169770.27,0.00 370163.27,6169774.88,0.00" speed="8.33" />
	<edge id="47413213_191211288_92616211" from="191211288" to="92616211" numLanes="2" shape="368326.58,6170468.05,0.00 368287.84,6170516.42,0.00 368267.14,6170543.40,0.00" speed="11.11" />
	<edge id="22816649_245467204_245467214" from="245467204" to="245467214" numLanes="1" shape="366872.30,6170195.27,0.00 366801.62,6170285.97,0.00" speed="11.11" />
	<edge id="20280343_81604573_680131569" from="81604573" to="680131569" numLanes="2" shape="370176.74,6169352.29,0.00 370169.11,6169417.58,0.00" speed="8.33" />
	<edge id="533466921_191195064_195796149" from="191195064" to="195796149" numLanes="2" shape="369003.26,6169098.65,0.00 368988.52,6169198.68,0.00" speed="11.11" />
	<edge id="288729078_206133149_194136760" from="206133149" to="194136760" numLanes="2" shape="368634.74,6168154.67,0.00 368527.92,6168135.00,0.00" speed="11.11" />
	<edge id="47372425_199475983_196222705" from="199475983" to="196222705" numLanes="2" shape="369830.89,6169915.07,0.00 369835.14,6169959.18,0.00 369836.80,6169976.34,0.00 369838.82,6169997.23,0.00 369841.73,6170030.31,0.00" speed="11.11" />
	<edge id="449772590_199456673_199456655" from="199456673" to="199456655" numLanes="2" shape="367437.20,6170130.27,0.00 367508.39,6170044.46,0.00" speed="11.11" />
	<edge id="221688462_199456947_199456962" from="199456947" to="199456962" numLanes="2" shape="367132.39,6169162.61,0.00 367237.16,6169213.76,0.00" speed="11.11" />
	<edge id="217203451_199457804_199475669" from="199457804" to="199475669" numLanes="2" shape="368609.90,6169491.92,0.00 368591.04,6169489.98,0.00" speed="11.11" />
	<edge id="18771656_193840457_199456284" from="193840457" to="199456284" numLanes="2" shape="366606.05,6169748.70,0.00 366607.01,6169742.50,0.00 366609.15,6169736.15,0.00 366611.92,6169730.27,0.00 366614.69,6169725.31,0.00 366639.38,6169697.05,0.00" speed="11.11" />
	<edge id="533481290_81830134_81892765" from="81830134" to="81892765" numLanes="2" shape="368462.53,6171328.45,0.00 368530.27,6171382.53,0.00 368548.33,6171396.94,0.00" speed="5.56" />
	<edge id="18822516_199483197_195723904" from="199483197" to="195723904" numLanes="1" shape="371083.35,6170223.92,0.00 371111.05,6170325.44,0.00" speed="11.11" />
	<edge id="221560298_237953486_1422573866" from="237953486" to="1422573866" numLanes="2" shape="367749.90,6170137.04,0.00 367749.14,6170153.84,0.00" speed="11.11" />
	<edge id="128824036_1422573848_4984115831" from="1422573848" to="4984115831" numLanes="2" shape="367344.66,6170771.90,0.00 367255.58,6170697.48,0.00" speed="16.67" />
	<edge id="121176025_191211208_191173155" from="191211208" to="191173155" numLanes="2" shape="368201.28,6170825.84,0.00 368121.52,6170927.30,0.00" speed="11.11" />
	<edge id="29094526_196234917_196234877" from="196234917" to="196234877" numLanes="2" shape="369725.56,6171331.28,0.00 369718.55,6171283.27,0.00 369705.82,6171197.26,0.00" speed="8.33" />
	<edge id="221560178_199457786_199457778" from="199457786" to="199457778" numLanes="2" shape="368024.78,6170226.43,0.00 367992.59,6170268.11,0.00 367977.20,6170288.02,0.00 367963.93,6170305.38,0.00" speed="11.11" />
	<edge id="48743383_2153536891_195953414" from="2153536891" to="195953414" numLanes="2" shape="367412.64,6168588.15,0.00 367366.47,6168590.93,0.00" speed="11.11" />
	<edge id="259072197_195592516_206134692" from="195592516" to="206134692" numLanes="2" shape="369812.89,6169320.58,0.00 369930.36,6169331.13,0.00" speed="11.11" />
	<edge id="98230341_1422573900_4467070287" from="1422573900" to="4467070287" numLanes="2" shape="368074.29,6169680.27,0.00 368087.83,6169656.55,0.00" speed="16.67" />