<nodes>
	<node id="104305652" x="368730.13" y="6171250.76" z="0.00" type="traffic_light" />
	<node id="1043120745" x="368165.22" y="6169808.65" z="0.00" type="priority" />
	<node id="1043120749" x="368454.67" y="6169866.14" z="0.00" type="priority" />
	<node id="104329497" x="369582.46" y="6172111.52" z="0.00" type="priority" />
	<node id="107926966" x="369975.74" y="6171549.76" z="0.00" type="traffic_light" />
	<node id="107928838" x="367828.65" y="6170074.29" z="0.00" type="traffic_light" />
	<node id="107928840" x="368177.84" y="6170346.98" z="0.00" type="traffic_light" />
	<node id="107928841" x="368238.48" y="6170392.81" z="0.00" type="priority" />
	<node id="107928844" x="369829.96" y="6171685.73" z="0.00" type="traffic_light" />
	<node id="107929882" x="370904.29" y="6172014.29" z="0.00" type="traffic_light" />
	<node id="107930521" x="371327.92" y="6171678.31" z="0.00" type="priority" />
	<node id="107930734" x="371527.26" y="6171541.53" z="0.00" type="traffic_light" />
	<node id="107932466" x="371119.14" y="6171487.93" z="0.00" type="priority" />
	<node id="107932467" x="371307.30" y="6171333.30" z="0.00" type="priority" />
	<node id="1135940970" x="368386.15" y="6169900.08" z="0.00" type="priority" />
	<node id="1176184775" x="368043.58" y="6171426.75" z="0.00" type="priority" />
	<node id="1211214623" x="366982.46" y="6171578.98" z="0.00" type="priority" />
	<node id="1267934321" x="370824.42" y="6169306.33" z="0.00" type="priority" />
	<node id="1267934336" x="371066.41" y="6169427.24" z="0.00" type="priority" />
	<node id="1267934508" x="371090.08" y="6169369.23" z="0.00" type="priority" />
	<node id="1268373207" x="371090.17" y="6169688.35" z="0.00" type="traffic_light" />
	<node id="1268373211" x="371075.50" y="6169555.72" z="0.00" type="traffic_light" />
	<node id="126868119" x="371327.10" y="6169451.23" z="0.00" type="traffic_light" />
	<node id="126868121" x="371316.86" y="6169583.01" z="0.00" type="traffic_light" />
	<node id="126869635" x="370827.05" y="6169266.82" z="0.00" type="traffic_light" />
	<node id="126873566" x="370835.49" y="6169140.03" z="0.00" type="traffic_light" />
	<node id="126873568" x="370844.44" y="6169014.86" z="0.00" type="traffic_light" />
	<node id="126873574" x="370880.95" y="6168740.53" z="0.00" type="traffic_light" />
	<node id="126873577" x="370895.48" y="6168581.74" z="0.00" type="traffic_light" />
	<node id="126873581" x="370940.74" y="6168227.18" z="0.00" type="traffic_light" />
	<node id="126873584" x="370960.63" y="6168101.51" z="0.00" type="traffic_light" />
	<node id="1287085948" x="370377.44" y="6170987.65" z="0.00" type="traffic_light" />
	<node id="1292569017" x="369918.04" y="6170899.90" z="0.00" type="traffic_light" />
	<node id="1295503804" x="371611.34" y="6171596.77" z="0.00" type="priority" />
	<node id="1320979571" x="370980.34" y="6170769.19" z="0.00" type="priority" />
	<node id="1355646063" x="369543.07" y="6171307.64" z="0.00" type="traffic_light" />
	<node id="1399347912" x="368835.84" y="6169523.30" z="0.00" type="priority" />
	<node id="1402299832" x="369268.44" y="6168736.91" z="0.00" type="traffic_light" />
	<node id="1404070234" x="370214.00" y="6168924.84" z="0.00" type="priority" />
	<node id="1422573840" x="367979.90" y="6171305.51" z="0.00" type="priority" />
	<node id="1422573841" x="367874.60" y="6171235.16" z="0.00" type="priority" />
	<node id="1422573842" x="367782.20" y="6171153.56" z="0.00" type="priority" />
	<node id="1422573843" x="367691.40" y="6171077.40" z="0.00" type="traffic_light" />
	<node id="1422573844" x="367618.78" y="6171013.06" z="0.00" type="priority" />
	<node id="1422573845" x="367549.48" y="6170951.27" z="0.00" type="traffic_light" />
	<node id="1422573846" x="367440.98" y="6170855.25" z="0.00" type="priority" />
	<node id="1422573848" x="367344.66" y="6170771.90" z="0.00" type="traffic_light" />
	<node id="1422573849" x="367243.80" y="6170687.66" z="0.00" type="priority" />
	<node id="1422573850" x="367144.08" y="6170602.09" z="0.00" type="priority" />
	<node id="1422573851" x="367044.83" y="6170516.02" z="0.00" type="traffic_light" />
	<node id="1422573852" x="366950.83" y="6170434.38" z="0.00" type="traffic_light" />
	<node id="1422573853" x="367102.24" y="6170374.31" z="0.00" type="priority" />
	<node id="1422573856" x="367123.43" y="6170346.16" z="0.00" type="priority" />
	<node id="1422573859" x="367485.34" y="6170243.06" z="0.00" type="priority" />
	<node id="1422573861" x="367503.93" y="6170223.36" z="0.00" type="priority" />
	<node id="1422573865" x="367778.11" y="6170167.12" z="0.00" type="priority" />
	<node id="1422573866" x="367749.14" y="6170153.84" z="0.00" type="priority" />
	<node id="1422573869" x="367758.41" y="6170109.46" z="0.00" type="priority" />
	<node id="1422573881" x="368098.10" y="6169789.79" z="0.00" type="traffic_light" />
	<node id="1422573900" x="368074.29" y="6169680.27" z="0.00" type="priority" />
	<node id="1422573901" x="368106.23" y="6169683.77" z="0.00" type="priority" />
	<node id="1422573918" x="368406.06" y="6169102.66" z="0.00" type="traffic_light" />
	<node id="1422610040" x="366939.73" y="6170952.08" z="0.00" type="priority" />
	<node id="1422610041" x="366949.76" y="6170942.21" z="0.00" type="priority" />
	<node id="1422610045" x="366901.24" y="6170863.81" z="0.00" type="priority" />
	<node id="1422610048" x="366794.88" y="6170494.81" z="0.00" type="priority" />
	<node id="1422610051" x="366775.95" y="6170476.78" z="0.00" type="priority" />
	<node id="1422610060" x="366801.78" y="6170398.05" z="0.00" type="priority" />
	<node id="1422610061" x="366854.18" y="6170352.24" z="0.00" type="priority" />
	<node id="1422610064" x="366843.60" y="6170343.39" z="0.00" type="priority" />
	<node id="1422610066" x="366854.47" y="6170330.33" z="0.00" type="priority" />
	<node id="1422610068" x="366755.06" y="6170267.71" z="0.00" type="traffic_light" />
	<node id="1422610069" x="366923.80" y="6170238.77" z="0.00" type="priority" />
	<node id="1422610070" x="366666.78" y="6170196.46" z="0.00" type="priority" />
	<node id="1422610072" x="366577.60" y="6170121.49" z="0.00" type="traffic_light" />
	<node id="1422610073" x="366486.57" y="6170047.36" z="0.00" type="traffic_light" />
	<node id="1422610074" x="366362.60" y="6169937.69" z="0.00" type="traffic_light" />
	<node id="1422610080" x="366263.48" y="6169852.57" z="0.00" type="priority" />
	<node id="1422620264" x="365604.64" y="6170730.10" z="0.00" type="traffic_light" />
	<node id="1422620278" x="366165.81" y="6169769.52" z="0.00" type="traffic_light" />
	<node id="1426315201" x="366082.83" y="6169700.35" z="0.00" type="traffic_light" />
	<node id="1426315202" x="365989.28" y="6169622.06" z="0.00" type="traffic_light" />
	<node id="1426315208" x="365884.31" y="6169531.84" z="0.00" type="priority" />
	<node id="1426315210" x="365773.69" y="6169437.33" z="0.00" type="traffic_light" />
	<node id="1426315213" x="365728.83" y="6169392.51" z="0.00" type="priority" />
	<node id="1426315214" x="365707.78" y="6169364.99" z="0.00" type="priority" />
	<node id="1426315215" x="365687.30" y="6169340.30" z="0.00" type="priority" />
	<node id="1426315216" x="365640.94" y="6169274.73" z="0.00" type="priority" />
	<node id="1436010044" x="366987.91" y="6170159.53" z="0.00" type="traffic_light" />
	<node id="1436010045" x="367084.18" y="6170037.87" z="0.00" type="traffic_light" />
	<node id="1436010047" x="367215.78" y="6169952.95" z="0.00" type="priority" />
	<node id="1436010048" x="367175.79" y="6169922.08" z="0.00" type="traffic_light" />
	<node id="1436010055" x="367305.15" y="6169888.49" z="0.00" type="priority" />
	<node id="1436010062" x="367243.44" y="6169841.90" z="0.00" type="priority" />
	<node id="1436010068" x="367302.18" y="6169758.52" z="0.00" type="traffic_light" />
	<node id="1436010074" x="367359.88" y="6169670.85" z="0.00" type="priority" />
	<node id="1436010075" x="367443.25" y="6169544.81" z="0.00" type="priority" />
	<node id="1436010076" x="367360.37" y="6169527.33" z="0.00" type="traffic_light" />
	<node id="1436010079" x="367470.89" y="6169503.65" z="0.00" type="priority" />
	<node id="1436010082" x="367514.02" y="6169434.24" z="0.00" type="priority" />
	<node id="1436034205" x="370827.57" y="6169396.29" z="0.00" type="traffic_light" />
	<node id="1436034217" x="369683.88" y="6169319.62" z="0.00" type="priority" />
	<node id="1436034219" x="371091.52" y="6169348.91" z="0.00" type="priority" />
	<node id="1436034230" x="370841.35" y="6169283.60" z="0.00" type="priority" />
	<node id="1436034231" x="371048.53" y="6169286.86" z="0.00" type="priority" />
	<node id="1436034234" x="370855.71" y="6169269.36" z="0.00" type="priority" />
	<node id="1445067023" x="369084.62" y="6169123.25" z="0.00" type="priority" />
	<node id="1445067027" x="369107.18" y="6169023.04" z="0.00" type="priority" />
	<node id="1445067034" x="369033.84" y="6168743.71" z="0.00" type="priority" />
	<node id="1445067036" x="369033.71" y="6168733.21" z="0.00" type="priority" />
	<node id="1445067037" x="369047.97" y="6168713.23" z="0.00" type="priority" />
	<node id="1445067043" x="368969.91" y="6168688.18" z="0.00" type="priority" />
	<node id="1445067054" x="368872.45" y="6168466.03" z="0.00" type="priority" />
	<node id="1529544480" x="367773.66" y="6168322.34" z="0.00" type="priority" />
	<node id="1529544528" x="367785.84" y="6168286.70" z="0.00" type="priority" />
	<node id="1557441693" x="367673.32" y="6168782.40" z="0.00" type="priority" />
	<node id="1557441697" x="367616.89" y="6168752.94" z="0.00" type="priority" />
	<node id="1557441700" x="367479.26" y="6168685.53" z="0.00" type="priority" />
	<node id="1557441711" x="367736.53" y="6168679.22" z="0.00" type="priority" />
	<node id="1557441714" x="367657.47" y="6168645.69" z="0.00" type="priority" />
	<node id="1557441718" x="367371.21" y="6168634.77" z="0.00" type="priority" />
	<node id="1596265882" x="367430.94" y="6168142.34" z="0.00" type="priority" />
	<node id="1629199627" x="365587.99" y="6169204.65" z="0.00" type="priority" />
	<node id="165695277" x="368964.29" y="6168706.54" z="0.00" type="traffic_light" />
	<node id="165696089" x="368638.69" y="6168531.20" z="0.00" type="traffic_light" />
	<node id="165696090" x="368463.68" y="6168963.13" z="0.00" type="traffic_light" />
	<node id="165696092" x="368325.97" y="6169404.04" z="0.00" type="traffic_light" />
	<node id="1676340354" x="370819.20" y="6169401.62" z="0.00" type="priority" />
	<node id="1678850793" x="367555.62" y="6169365.10" z="0.00" type="traffic_light" />
	<node id="1678850801" x="367626.84" y="6169259.38" z="0.00" type="traffic_light" />
	<node id="1678850805" x="367695.64" y="6169154.61" z="0.00" type="traffic_light" />
	<node id="1678850809" x="367872.73" y="6169100.60" z="0.00" type="priority" />
	<node id="1678850816" x="367764.60" y="6169047.03" z="0.00" type="priority" />
	<node id="1678850825" x="367838.93" y="6168929.83" z="0.00" type="traffic_light" />
	<node id="1678850833" x="367886.13" y="6168820.98" z="0.00" type="priority" />
	<node id="1678850839" x="367914.10" y="6168726.91" z="0.00" type="traffic_light" />
	<node id="1678850886" x="367972.07" y="6168458.17" z="0.00" type="priority" />
	<node id="1687728856" x="366235.87" y="6168714.42" z="0.00" type="priority" />
	<node id="1732222624" x="366618.97" y="6168901.08" z="0.00" type="priority" />
	<node id="177143607" x="370274.16" y="6171720.59" z="0.00" type="traffic_light" />
	<node id="177145853" x="370164.77" y="6171607.87" z="0.00" type="traffic_light" />
	<node id="178681855" x="371568.26" y="6169736.62" z="0.00" type="traffic_light" />
	<node id="178681857" x="371579.18" y="6169599.27" z="0.00" type="traffic_light" />
	<node id="178681858" x="371587.63" y="6169470.84" z="0.00" type="traffic_light" />
	<node id="181064653" x="366090.61" y="6169684.58" z="0.00" type="traffic_light" />
	<node id="181069443" x="370144.17" y="6170353.03" z="0.00" type="traffic_light" />
	<node id="181071078" x="370420.27" y="6169945.21" z="0.00" type="traffic_light" />
	<node id="181071080" x="369975.79" y="6170016.86" z="0.00" type="traffic_light" />
	<node id="181074105" x="370925.16" y="6170747.62" z="0.00" type="traffic_light" />
	<node id="181074107" x="370553.05" y="6170821.40" z="0.00" type="priority" />
	<node id="181074109" x="369973.42" y="6171338.26" z="0.00" type="traffic_light" />
	<node id="181074110" x="369864.35" y="6171415.41" z="0.00" type="traffic_light" />
	<node id="181074112" x="369749.74" y="6171498.46" z="0.00" type="traffic_light" />
	<node id="181074114" x="369644.26" y="6171542.60" z="0.00" type="traffic_light" />
	<node id="181082357" x="367255.96" y="6169443.46" z="0.00" type="priority" />
	<node id="181084687" x="367923.95" y="6168602.11" z="0.00" type="traffic_light" />
	<node id="181085154" x="366984.97" y="6169639.01" z="0.00" type="traffic_light" />
	<node id="181086433" x="366334.09" y="6169042.43" z="0.00" type="priority" />
	<node id="181086461" x="366766.95" y="6169296.64" z="0.00" type="traffic_light" />
	<node id="181086463" x="366654.43" y="6169222.44" z="0.00" type="priority" />
	<node id="181086465" x="366536.85" y="6169165.05" z="0.00" type="priority" />
	<node id="181087719" x="365865.34" y="6169909.20" z="0.00" type="priority" />
	<node id="181087720" x="365920.11" y="6169787.28" z="0.00" type="priority" />
	<node id="181087721" x="365994.08" y="6169605.15" z="0.00" type="traffic_light" />
	<node id="181087722" x="366124.22" y="6169381.79" z="0.00" type="priority" />
	<node id="181089548" x="365925.74" y="6169959.48" z="0.00" type="priority" />
	<node id="181089551" x="365136.50" y="6169519.44" z="0.00" type="traffic_light" />
	<node id="181095379" x="368227.94" y="6169869.95" z="0.00" type="priority" />
	<node id="181095380" x="367952.63" y="6170018.20" z="0.00" type="traffic_light" />
	<node id="181097751" x="367348.80" y="6168989.65" z="0.00" type="priority" />
	<node id="181097842" x="366740.04" y="6168675.04" z="0.00" type="priority" />
	<node id="181098992" x="366518.56" y="6168968.98" z="0.00" type="traffic_light" />
	<node id="181099463" x="367047.87" y="6168268.95" z="0.00" type="traffic_light" />
	<node id="181100179" x="367163.81" y="6168330.60" z="0.00" type="traffic_light" />
	<node id="181100180" x="367125.09" y="6168436.67" z="0.00" type="priority" />
	<node id="181100182" x="367065.15" y="6168555.82" z="0.00" type="priority" />
	<node id="181100705" x="366736.93" y="6169096.37" z="0.00" type="traffic_light" />
	<node id="181101679" x="367852.25" y="6168936.38" z="0.00" type="priority" />
	<node id="181101680" x="366829.72" y="6168458.24" z="0.00" type="priority" />
	<node id="181101682" x="366593.29" y="6168366.27" z="0.00" type="priority" />
	<node id="181101685" x="366400.02" y="6168292.85" z="0.00" type="priority" />
	<node id="181104757" x="367815.45" y="6169675.90" z="0.00" type="traffic_light" />
	<node id="181109462" x="371335.07" y="6169311.96" z="0.00" type="traffic_light" />
	<node id="181113590" x="370679.29" y="6169529.45" z="0.00" type="traffic_light" />
	<node id="181113592" x="370551.20" y="6169538.05" z="0.00" type="traffic_light" />
	<node id="181113595" x="370358.89" y="6169590.28" z="0.00" type="traffic_light" />
	<node id="181113597" x="370284.28" y="6169612.09" z="0.00" type="priority" />
	<node id="181113598" x="369928.56" y="6169648.30" z="0.00" type="traffic_light" />
	<node id="181113600" x="369815.14" y="6169728.55" z="0.00" type="traffic_light" />
	<node id="181113601" x="368820.86" y="6169721.93" z="0.00" type="traffic_light" />
	<node id="181113602" x="368693.39" y="6169662.52" z="0.00" type="priority" />
	<node id="181113603" x="368636.35" y="6169668.54" z="0.00" type="traffic_light" />
	<node id="181114848" x="367837.94" y="6169392.07" z="0.00" type="traffic_light" />
	<node id="181138952" x="371969.73" y="6169508.38" z="0.00" type="traffic_light" />
	<node id="181166596" x="368512.25" y="6171234.45" z="0.00" type="priority" />
	<node id="181166598" x="368753.82" y="6170935.09" z="0.00" type="traffic_light" />
	<node id="181166600" x="368964.62" y="6170672.57" z="0.00" type="priority" />
	<node id="181166601" x="369056.03" y="6170563.04" z="0.00" type="traffic_light" />
	<node id="181167619" x="368221.52" y="6171402.32" z="0.00" type="priority" />
	<node id="181169034" x="367805.11" y="6170673.92" z="0.00" type="traffic_light" />
	<node id="1855075115" x="367898.40" y="6168352.42" z="0.00" type="priority" />
	<node id="1855075116" x="367966.03" y="6168153.86" z="0.00" type="priority" />
	<node id="1855075117" x="368157.44" y="6168151.87" z="0.00" type="priority" />
	<node id="190996763" x="371607.78" y="6172081.81" z="0.00" type="traffic_light" />
	<node id="191173074" x="368818.90" y="6170856.30" z="0.00" type="priority" />
	<node id="191173089" x="368720.14" y="6170778.94" z="0.00" type="priority" />
	<node id="191173102" x="368655.97" y="6170857.86" z="0.00" type="traffic_light" />
	<node id="191173114" x="368620.11" y="6170700.25" z="0.00" type="priority" />
	<node id="191173125" x="368416.64" y="6171159.70" z="0.00" type="priority" />
	<node id="191173135" x="368318.72" y="6171081.49" z="0.00" type="priority" />
	<node id="191173145" x="368220.96" y="6171004.61" z="0.00" type="priority" />
	<node id="191173155" x="368121.52" y="6170927.30" z="0.00" type="traffic_light" />
	<node id="191173169" x="368024.11" y="6170849.30" z="0.00" type="traffic_light" />
	<node id="191173181" x="367932.06" y="6170776.10" z="0.00" type="priority" />
	<node id="191173197" x="370168.40" y="6171809.33" z="0.00" type="traffic_light" />
	<node id="191173231" x="371221.62" y="6171403.45" z="0.00" type="priority" />
	<node id="191173563" x="371048.02" y="6171422.47" z="0.00" type="traffic_light" />
	<node id="191194955" x="367980.68" y="6170482.51" z="0.00" type="traffic_light" />
	<node id="191194969" x="367891.11" y="6170580.41" z="0.00" type="traffic_light" />
	<node id="191194983" x="368903.57" y="6170457.74" z="0.00" type="priority" />
	<node id="191194996" x="368861.63" y="6170133.32" z="0.00" type="traffic_light" />
	<node id="191195009" x="368844.77" y="6169414.24" z="0.00" type="traffic_light" />
	<node id="191195022" x="368860.78" y="6169171.92" z="0.00" type="traffic_light" />
	<node id="191195032" x="368963.38" y="6169724.53" z="0.00" type="traffic_light" />
	<node id="191195051" x="368960.88" y="6169418.52" z="0.00" type="traffic_light" />
	<node id="191195064" x="369003.26" y="6169098.65" z="0.00" type="priority" />
	<node id="191209800" x="371144.10" y="6171326.83" z="0.00" type="traffic_light" />
	<node id="191211195" x="368011.42" y="6170677.06" z="0.00" type="traffic_light" />
	<node id="191211201" x="368103.67" y="6170748.44" z="0.00" type="priority" />
	<node id="191211208" x="368201.28" y="6170825.84" z="0.00" type="priority" />
	<node id="191211213" x="368298.78" y="6170906.34" z="0.00" type="priority" />
	<node id="191211218" x="368397.85" y="6170982.71" z="0.00" type="priority" />
	<node id="191211224" x="368495.35" y="6171061.57" z="0.00" type="priority" />
	<node id="191211231" x="368572.89" y="6170960.47" z="0.00" type="priority" />
	<node id="191211236" x="368477.24" y="6170880.54" z="0.00" type="priority" />
	<node id="191211244" x="368377.34" y="6170804.27" z="0.00" type="priority" />
	<node id="191211249" x="368281.40" y="6170725.81" z="0.00" type="priority" />
	<node id="191211253" x="368185.82" y="6170645.66" z="0.00" type="traffic_light" />
	<node id="191211256" x="368093.92" y="6170574.91" z="0.00" type="priority" />
	<node id="191211259" x="368402.35" y="6170376.26" z="0.00" type="traffic_light" />
	<node id="191211265" x="368499.19" y="6170452.85" z="0.00" type="priority" />
	<node id="191211275" x="368424.52" y="6170544.11" z="0.00" type="priority" />
	<node id="191211288" x="368326.58" y="6170468.05" z="0.00" type="priority" />
	<node id="191211827" x="368595.82" y="6170530.53" z="0.00" type="traffic_light" />
	<node id="191211835" x="368696.19" y="6170608.40" z="0.00" type="priority" />
	<node id="191211853" x="368791.80" y="6170688.36" z="0.00" type="priority" />
	<node id="191211859" x="368865.37" y="6170595.38" z="0.00" type="priority" />
	<node id="191211878" x="368889.12" y="6170764.05" z="0.00" type="priority" />
	<node id="191211886" x="368671.41" y="6171039.17" z="0.00" type="priority" />
	<node id="191211903" x="368347.91" y="6171242.20" z="0.00" type="priority" />
	<node id="191869337" x="369208.92" y="6171030.03" z="0.00" type="priority" />
	<node id="191869350" x="369386.47" y="6171183.18" z="0.00" type="traffic_light" />
	<node id="191869362" x="369305.83" y="6171263.23" z="0.00" type="priority" />
	<node id="191869375" x="369397.17" y="6171337.68" z="0.00" type="priority" />
	<node id="191869383" x="369483.81" y="6171410.99" z="0.00" type="priority" />
	<node id="191896546" x="366729.69" y="6171194.51" z="0.00" type="priority" />
	<node id="191896598" x="368176.48" y="6171256.45" z="0.00" type="priority" />
	<node id="191896612" x="368280.13" y="6171329.06" z="0.00" type="traffic_light" />
	<node id="191931716" x="367251.22" y="6170488.82" z="0.00" type="traffic_light" />
	<node id="191931722" x="366086.22" y="6168753.26" z="0.00" type="traffic_light" />
	<node id="191931737" x="367456.14" y="6169551.50" z="0.00" type="traffic_light" />
	<node id="192000783" x="371680.30" y="6171437.40" z="0.00" type="traffic_light" />
	<node id="192000800" x="371551.50" y="6171114.81" z="0.00" type="traffic_light" />
	<node id="192000826" x="371783.73" y="6171366.68" z="0.00" type="traffic_light" />
	<node id="192000839" x="371727.61" y="6171255.89" z="0.00" type="traffic_light" />
	<node id="192000855" x="371629.53" y="6170963.51" z="0.00" type="traffic_light" />
	<node id="192000930" x="371691.20" y="6171160.75" z="0.00" type="priority" />
	<node id="192000945" x="371811.76" y="6171697.07" z="0.00" type="traffic_light" />
	<node id="192015756" x="371231.34" y="6171742.86" z="0.00" type="traffic_light" />
	<node id="192015767" x="371127.69" y="6171647.62" z="0.00" type="traffic_light" />
	<node id="192015781" x="371031.20" y="6171560.97" z="0.00" type="traffic_light" />
	<node id="192015793" x="371331.80" y="6171833.24" z="0.00" type="traffic_light" />
	<node id="192015850" x="371428.23" y="6171920.36" z="0.00" type="traffic_light" />
	<node id="192015862" x="370740.91" y="6171571.31" z="0.00" type="traffic_light" />
	<node id="192015868" x="370797.77" y="6171656.77" z="0.00" type="traffic_light" />
	<node id="192015877" x="370847.64" y="6171723.89" z="0.00" type="traffic_light" />
	<node id="192015931" x="370964.98" y="6171500.05" z="0.00" type="traffic_light" />
	<node id="192015939" x="371578.89" y="6171205.92" z="0.00" type="traffic_light" />
	<node id="192897703" x="370096.25" y="6171538.76" z="0.00" type="traffic_light" />
	<node id="192897706" x="370432.01" y="6171256.58" z="0.00" type="traffic_light" />
	<node id="192897708" x="370550.08" y="6171167.23" z="0.00" type="priority" />
	<node id="192897711" x="370677.54" y="6171102.36" z="0.00" type="priority" />
	<node id="192898898" x="371529.98" y="6170393.93" z="0.00" type="priority" />
	<node id="192898900" x="371402.45" y="6170409.02" z="0.00" type="traffic_light" />
	<node id="192898901" x="371326.30" y="6170418.18" z="0.00" type="traffic_light" />
	<node id="192898904" x="370380.16" y="6170493.90" z="0.00" type="priority" />
	<node id="192899622" x="370579.44" y="6170087.04" z="0.00" type="priority" />
	<node id="192900536" x="370441.26" y="6170046.92" z="0.00" type="priority" />
	<node id="192900537" x="370512.45" y="6170485.39" z="0.00" type="traffic_light" />
	<node id="192900538" x="370543.56" y="6170753.43" z="0.00" type="traffic_light" />
	<node id="192900540" x="370779.92" y="6171330.52" z="0.00" type="traffic_light" />
	<node id="192900952" x="370312.97" y="6170075.03" z="0.00" type="priority" />
	<node id="192901685" x="370612.35" y="6170954.61" z="0.00" type="priority" />
	<node id="192901687" x="371023.25" y="6170747.55" z="0.00" type="traffic_light" />
	<node id="192901819" x="369985.93" y="6170157.20" z="0.00" type="traffic_light" />
	<node id="192901820" x="369999.40" y="6170403.49" z="0.00" type="priority" />
	<node id="192902693" x="369981.11" y="6170410.85" z="0.00" type="priority" />
	<node id="192916932" x="370761.15" y="6168719.90" z="0.00" type="traffic_light" />
	<node id="192916934" x="370333.19" y="6168683.06" z="0.00" type="traffic_light" />
	<node id="192916935" x="369808.88" y="6168639.72" z="0.00" type="traffic_light" />
	<node id="192916936" x="369138.30" y="6168606.33" z="0.00" type="priority" />
	<node id="192919058" x="369533.94" y="6168759.03" z="0.00" type="traffic_light" />
	<node id="192919059" x="369934.90" y="6168813.59" z="0.00" type="traffic_light" />
	<node id="193830087" x="371880.15" y="6168379.95" z="0.00" type="traffic_light" />
	<node id="193830089" x="371189.35" y="6168296.53" z="0.00" type="traffic_light" />
	<node id="193830090" x="370804.71" y="6168192.90" z="0.00" type="traffic_light" />
	<node id="193830092" x="370140.22" y="6168076.12" z="0.00" type="traffic_light" />
	<node id="193830093" x="369875.70" y="6168046.91" z="0.00" type="traffic_light" />
	<node id="193830099" x="368275.34" y="6167796.67" z="0.00" type="priority" />
	<node id="193837306" x="367430.98" y="6170300.30" z="0.00" type="priority" />
	<node id="193838810" x="365466.07" y="6168784.44" z="0.00" type="traffic_light" />
	<node id="193838812" x="366214.30" y="6169234.97" z="0.00" type="priority" />
	<node id="193838813" x="366644.89" y="6169487.73" z="0.00" type="priority" />
	<node id="193838814" x="366867.28" y="6169672.53" z="0.00" type="traffic_light" />
	<node id="193839790" x="367366.83" y="6168698.97" z="0.00" type="priority" />
	<node id="193839791" x="367237.44" y="6168935.16" z="0.00" type="priority" />
	<node id="193839792" x="367060.27" y="6169315.37" z="0.00" type="traffic_light" />
	<node id="193839793" x="366963.12" y="6169468.24" z="0.00" type="priority" />
	<node id="193839794" x="366454.90" y="6170083.10" z="0.00" type="priority" />
	<node id="193840448" x="367251.12" y="6168645.76" z="0.00" type="traffic_light" />
	<node id="193840457" x="366606.05" y="6169748.70" z="0.00" type="priority" />
	<node id="193841282" x="367371.25" y="6169505.91" z="0.00" type="priority" />
	<node id="193841285" x="367382.15" y="6168864.00" z="0.00" type="priority" />
	<node id="193841286" x="367367.63" y="6168523.15" z="0.00" type="priority" />
	<node id="193841287" x="367379.91" y="6168416.99" z="0.00" type="traffic_light" />
	<node id="193842682" x="367927.48" y="6168730.79" z="0.00" type="priority" />
	<node id="193842684" x="367469.12" y="6168443.82" z="0.00" type="traffic_light" />
	<node id="193842685" x="366516.07" y="6167999.99" z="0.00" type="traffic_light" />
	<node id="193843903" x="367658.24" y="6170160.13" z="0.00" type="traffic_light" />
	<node id="193843907" x="366264.81" y="6169151.22" z="0.00" type="priority" />
	<node id="193843909" x="365642.45" y="6168740.35" z="0.00" type="traffic_light" />
	<node id="193925656" x="371859.18" y="6170919.13" z="0.00" type="traffic_light" />
	<node id="193925660" x="371893.05" y="6170317.95" z="0.00" type="traffic_light" />
	<node id="193925665" x="371993.61" y="6169122.86" z="0.00" type="traffic_light" />
	<node id="194118109" x="370418.18" y="6167620.13" z="0.00" type="traffic_light" />
	<node id="194122329" x="367958.47" y="6169394.65" z="0.00" type="traffic_light" />
	<node id="194122331" x="368177.16" y="6168815.46" z="0.00" type="traffic_light" />
	<node id="194122333" x="368204.98" y="6168612.96" z="0.00" type="traffic_light" />
	<node id="194122337" x="368435.38" y="6168017.81" z="0.00" type="traffic_light" />
	<node id="194136758" x="368420.13" y="6168409.36" z="0.00" type="priority" />
	<node id="194136759" x="368488.16" y="6168263.62" z="0.00" type="traffic_light" />
	<node id="194136760" x="368527.92" y="6168135.00" z="0.00" type="priority" />
	<node id="194136761" x="368596.48" y="6167839.64" z="0.00" type="traffic_light" />
	<node id="194139377" x="367723.86" y="6168025.40" z="0.00" type="traffic_light" />
	<node id="194139380" x="369042.72" y="6168357.45" z="0.00" type="traffic_light" />
	<node id="194147302" x="370475.22" y="6167004.87" z="0.00" type="traffic_light" />
	<node id="194435458" x="371912.50" y="6170060.73" z="0.00" type="traffic_light" />
	<node id="194436462" x="371632.22" y="6170458.61" z="0.00" type="traffic_light" />
	<node id="194437047" x="371844.54" y="6169495.06" z="0.00" type="traffic_light" />
	<node id="194437519" x="370931.60" y="6169543.22" z="0.00" type="traffic_light" />
	<node id="194437520" x="371184.61" y="6170630.56" z="0.00" type="traffic_light" />
	<node id="194441258" x="369685.80" y="6169307.44" z="0.00" type="traffic_light" />
	<node id="194441259" x="369387.58" y="6169271.08" z="0.00" type="traffic_light" />
	<node id="194441260" x="369120.45" y="6169218.67" z="0.00" type="traffic_light" />
	<node id="194441572" x="371865.07" y="6170582.22" z="0.00" type="traffic_light" />
	<node id="194442087" x="371044.56" y="6170911.16" z="0.00" type="priority" />
	<node id="194442090" x="370965.17" y="6170458.00" z="0.00" type="traffic_light" />
	<node id="194442490" x="370929.04" y="6170344.77" z="0.00" type="priority" />
	<node id="194485150" x="371515.92" y="6170997.94" z="0.00" type="traffic_light" />
	<node id="194486338" x="370590.15" y="6171243.62" z="0.00" type="priority" />
	<node id="194486843" x="370894.65" y="6170966.82" z="0.00" type="traffic_light" />
	<node id="194502601" x="371425.57" y="6168450.05" z="0.00" type="priority" />
	<node id="195491799" x="370480.47" y="6171328.97" z="0.00" type="traffic_light" />
	<node id="195491813" x="370372.43" y="6171172.18" z="0.00" type="traffic_light" />
	<node id="195491825" x="370585.30" y="6171480.73" z="0.00" type="traffic_light" />
	<node id="195491843" x="370236.74" y="6170892.77" z="0.00" type="traffic_light" />