<additional xmlns:xsi="http://www.w3.org/2001/XMLSchema-instance" xsi:noNamespaceSchemaLocation="http://sumo.dlr.de/xsd/additional_file.xsd">
    <busStop id="busstop" lane="139083727#2_0" startPos="5" endPos="30"/>
    <vType id="BUS" vClass="bus" length="20"/>
    <vehicle id="bus" depart="0.00" type="BUS">
        <route edges="139083727#2 370073260#0 370073258#0 24400729#1">
            <stop busStop="busstop" duration="60"/>
        </route>
    </vehicle>
    <vehicle id="bus2" depart="0.00" type="BUS">
        <route edges="139083727#1 139083727#2 370073260#0 370073258#0 24400729#1">
            <stop busStop="busstop" duration="60"/>
        </route>
    </vehicle>
</additional>