<?xml version="1.0" encoding="UTF-8"?>

<!-- generated on 02/03/21 09:32:44 by Eclipse SUMO netedit Version 1.7.0
<configuration xmlns:xsi="http://www.w3.org/2001/XMLSchema-instance" xsi:noNamespaceSchemaLocation="http://sumo.dlr.de/xsd/netconvertConfiguration.xsd">

    <input>
        <sumo-net-file value="Tiergarten.net.xml"/>
    </input>

    <output>
        <output-file value="Tiergarten.net.xml"/>
    </output>

    <processing>
        <geometry.min-radius.fix.railways value="false"/>
        <geometry.max-grade.fix value="false"/>
        <offset.disable-normalization value="true"/>
        <lefthand value="false"/>
    </processing>

    <junctions>
        <no-turnarounds value="true"/>
        <junctions.corner-detail value="5"/>
        <junctions.limit-turn-speed value="5.5"/>
        <rectangular-lane-cut value="false"/>
    </junctions>

    <pedestrian>
        <walkingareas value="false"/>
    </pedestrian>

    <report>
        <aggregate-warnings value="5"/>
    </report>

</configuration>
-->

<net version="1.6" junctionCornerDetail="5" limitTurnSpeed="5.50" xmlns:xsi="http://www.w3.org/2001/XMLSchema-instance" xsi:noNamespaceSchemaLocation="http://sumo.dlr.de/xsd/net_file.xsd">

    <location netOffset="-385769.05,-5819239.15" convBoundary="0.00,0.00,4124.17,464.03" origBoundary="385769.05,5819239.15,389893.22,5819703.18" projParameter="+proj=utm +zone=33 +ellps=WGS84 +datum=WGS84 +units=m +no_defs"/>

    <edge id=":21487142_0" function="internal">
        <lane id=":21487142_0_0" index="0" speed="13.89" length="18.83" shape="284.48,163.66 281.82,158.87 279.22,156.10 276.09,153.70 271.86,150.01"/>
    </edge>
    <edge id=":21487142_1" function="internal">
        <lane id=":21487142_1_0" index="0" speed="13.89" length="19.17" shape="284.48,163.66 282.16,158.46 280.38,154.96 278.06,151.83 274.14,147.76"/>
    </edge>
    <edge id=":21487142_2" function="internal">
        <lane id=":21487142_2_0" index="0" speed="13.89" length="19.35" shape="284.48,163.66 281.92,158.48 280.07,154.92 278.72,151.23 277.67,145.61"/>
        <lane id=":21487142_2_1" index="1" speed="13.89" length="19.35" shape="287.39,162.34 284.87,157.19 283.06,153.66 281.76,149.98 280.74,144.41"/>
    </edge>
    <edge id=":21487143_0" function="internal">
        <lane id=":21487143_0_0" index="0" speed="13.89" length="0.67" shape="296.48,180.61 296.24,180.43 296.09,180.29 295.95,180.15 295.76,179.92"/>
        <lane id=":21487143_0_1" index="1" speed="13.89" length="0.67" shape="298.45,178.09 298.37,178.03 298.32,177.98 298.27,177.94 298.21,177.86"/>
    </edge>
    <edge id=":21487144_0" function="internal">
        <lane id=":21487144_0_0" index="0" speed="13.89" length="0.17" shape="360.00,203.97 359.75,204.00"/>
        <lane id=":21487144_0_1" index="1" speed="13.89" length="0.17" shape="359.59,200.80 359.51,200.81"/>
    </edge>
    <edge id=":21487145_0" function="internal">
        <lane id=":21487145_0_0" index="0" speed="13.89" length="10.79" shape="437.92,160.73 435.11,161.68 433.07,162.27 431.32,163.24 429.40,165.34"/>
        <lane id=":21487145_0_1" index="1" speed="13.89" length="10.79" shape="436.70,157.77 433.42,158.93 431.07,159.70 429.07,160.92 426.83,163.42"/>
    </edge>
    <edge id=":21487145_2" function="internal">
        <lane id=":21487145_2_0" index="0" speed="13.89" length="10.52" shape="433.46,155.06 432.79,158.32 432.22,160.56 431.26,162.62 429.40,165.34"/>
        <lane id=":21487145_2_1" index="1" speed="13.89" length="10.52" shape="430.33,154.38 429.75,157.25 429.28,159.22 428.46,161.04 426.83,163.42"/>
    </edge>
    <edge id=":21487146_0" function="internal">
        <lane id=":21487146_0_0" index="0" speed="10.80" length="1.10" shape="395.35,71.23 395.80,71.40 396.11,71.54 396.39,71.73 396.76,72.04"/>
        <lane id=":21487146_0_1" index="1" speed="13.89" length="1.10" shape="394.24,74.23 394.39,74.29 394.50,74.33 394.59,74.40 394.71,74.50"/>
    </edge>
    <edge id=":21487148_0" function="internal">
        <lane id=":21487148_0_0" index="0" speed="10.78" length="1.10" shape="410.78,188.60 410.44,188.96 410.19,189.19 409.91,189.37 409.48,189.61"/>
        <lane id=":21487148_0_1" index="1" speed="13.89" length="1.10" shape="408.42,186.44 408.31,186.56 408.22,186.64 408.13,186.70 407.99,186.78"/>
    </edge>
    <edge id=":21487168_0" function="internal">
        <lane id=":21487168_0_0" index="0" speed="13.89" length="10.91" shape="433.02,114.25 434.93,116.60 436.60,117.87 438.49,118.93 441.07,120.64"/>
        <lane id=":21487168_0_1" index="1" speed="13.89" length="10.91" shape="430.38,116.05 432.46,118.66 434.26,120.09 436.32,121.29 439.14,123.19"/>
    </edge>
    <edge id=":21487168_2" function="internal">
        <lane id=":21487168_2_0" index="0" speed="13.89" length="10.37" shape="430.38,116.05 432.35,118.59 433.85,120.31 434.91,122.20 435.56,125.24"/>
        <lane id=":21487168_2_1" index="1" speed="13.89" length="10.37" shape="430.38,116.05 431.77,118.56 432.20,120.52 432.22,122.64 432.38,125.61"/>
    </edge>
    <edge id=":21487169_0" function="internal">
        <lane id=":21487169_0_0" index="0" speed="9.35" length="9.33" shape="2206.00,329.98 2205.21,328.73 2203.69,327.46 2201.42,326.19 2198.42,324.90"/>
    </edge>
    <edge id=":21487169_1" function="internal">
        <lane id=":21487169_1_0" index="0" speed="9.96" length="10.65" shape="2206.00,329.98 2204.79,327.06 2203.31,324.75 2201.57,323.03 2199.57,321.91"/>
    </edge>
    <edge id=":21487169_2" function="internal">
        <lane id=":21487169_2_0" index="0" speed="13.89" length="11.25" shape="2206.00,329.98 2204.94,326.75 2204.29,324.52 2203.77,322.25 2203.09,318.92"/>
        <lane id=":21487169_2_1" index="1" speed="13.89" length="11.25" shape="2209.04,328.96 2208.01,325.84 2207.38,323.69 2206.88,321.49 2206.22,318.28"/>
    </edge>
    <edge id=":21487170_0" function="internal">
        <lane id=":21487170_0_0" index="0" speed="13.89" length="14.15" shape="2201.06,267.78 2204.54,265.70 2207.06,264.39 2209.27,262.77 2211.83,259.75"/>
        <lane id=":21487170_0_1" index="1" speed="13.89" length="14.15" shape="2202.85,270.43 2206.60,268.16 2209.30,266.71 2211.67,264.91 2214.42,261.62"/>
    </edge>
    <edge id=":21487170_2" function="internal">
        <lane id=":21487170_2_0" index="0" speed="13.89" length="14.05" shape="2205.96,272.88 2207.36,268.81 2208.27,265.98 2209.49,263.31 2211.83,259.75"/>
        <lane id=":21487170_2_1" index="1" speed="13.89" length="14.05" shape="2208.96,274.01 2210.26,270.17 2211.10,267.50 2212.23,264.98 2214.42,261.62"/>
    </edge>
    <edge id=":21487173_0" function="internal">
        <lane id=":21487173_0_0" index="0" speed="13.89" length="11.85" shape="2349.74,333.91 2346.61,334.87 2344.31,335.43 2342.37,336.43 2340.27,338.73"/>
        <lane id=":21487173_0_1" index="1" speed="13.89" length="11.85" shape="2348.58,330.93 2344.95,332.09 2342.32,332.85 2340.10,334.12 2337.68,336.86"/>
    </edge>
    <edge id=":21487173_2" function="internal">
        <lane id=":21487173_2_0" index="0" speed="13.89" length="11.72" shape="2345.69,327.98 2344.38,331.32 2343.45,333.61 2342.29,335.78 2340.27,338.73"/>
        <lane id=":21487173_2_1" index="1" speed="13.89" length="11.72" shape="2342.73,326.76 2341.50,329.90 2340.64,332.05 2339.56,334.08 2337.68,336.86"/>
    </edge>
    <edge id=":21487174_0" function="internal">
        <lane id=":21487174_0_0" index="0" speed="13.89" length="11.81" shape="2346.25,273.05 2347.97,275.97 2349.75,277.55 2351.93,278.79 2354.88,280.73"/>
    </edge>
    <edge id=":21487174_1" function="internal">
        <lane id=":21487174_1_0" index="0" speed="13.89" length="12.46" shape="2346.25,273.05 2347.69,276.47 2348.73,278.86 2350.21,280.90 2352.94,283.28"/>
    </edge>
    <edge id=":21487174_2" function="internal">
        <lane id=":21487174_2_0" index="0" speed="13.89" length="12.45" shape="2346.25,273.05 2347.72,276.54 2348.43,279.05 2348.86,281.65 2349.48,285.41"/>
        <lane id=":21487174_2_1" index="1" speed="13.89" length="12.45" shape="2343.34,274.40 2344.72,277.67 2345.37,280.03 2345.76,282.47 2346.34,286.00"/>
    </edge>
    <edge id=":21487175_0" function="internal">
        <lane id=":21487175_0_0" index="0" speed="11.21" length="1.08" shape="2311.73,232.44 2312.19,232.59 2312.49,232.72 2312.77,232.89 2313.15,233.18"/>
        <lane id=":21487175_0_1" index="1" speed="13.89" length="1.08" shape="2310.76,235.49 2310.92,235.54 2311.02,235.59 2311.11,235.64 2311.24,235.74"/>
    </edge>
    <edge id=":21668930_0" function="internal">
        <lane id=":21668930_0_0" index="0" speed="13.89" length="15.88" shape="1020.99,207.75 1005.16,206.22"/>
        <lane id=":21668930_0_1" index="1" speed="13.89" length="15.88" shape="1021.27,204.56 1005.50,203.04"/>
    </edge>
    <edge id=":21668930_2" function="internal">
        <lane id=":21668930_2_0" index="0" speed="7.94" length="13.81" shape="1021.27,204.56 1015.75,203.89 1011.85,202.94 1009.55,201.73 1008.87,200.23"/>
    </edge>
    <edge id=":21668930_3" function="internal">
        <lane id=":21668930_3_0" index="0" speed="7.09" length="10.82" shape="1021.27,204.56 1017.15,204.01 1014.24,203.14 1012.54,201.96 1012.06,200.47"/>
    </edge>
    <edge id=":21668930_4" function="internal">
        <lane id=":21668930_4_0" index="0" speed="8.35" length="1.66" shape="1018.44,200.93 1017.89,202.49"/>
    </edge>
    <edge id=":21668930_5" function="internal">
        <lane id=":21668930_5_0" index="0" speed="6.98" length="0.99" shape="1015.25,200.70 1014.81,201.58"/>
    </edge>
    <edge id=":21668930_6" function="internal">
        <lane id=":21668930_6_0" index="0" speed="3.65" length="0.98" shape="1015.25,200.70 1014.65,201.47"/>
    </edge>
    <edge id=":21668930_7" function="internal">
        <lane id=":21668930_7_0" index="0" speed="8.35" length="14.30" shape="1017.89,202.49 1017.43,203.77 1014.88,205.59 1010.79,206.41 1005.16,206.22"/>
    </edge>
    <edge id=":21668930_8" function="internal">
        <lane id=":21668930_8_0" index="0" speed="6.98" length="9.85" shape="1014.81,201.58 1014.55,202.11 1012.69,202.97 1009.67,203.28 1005.50,203.04"/>
    </edge>
    <edge id=":21668930_9" function="internal">
        <lane id=":21668930_9_0" index="0" speed="3.65" length="3.69" shape="1014.65,201.47 1014.37,201.84 1013.54,202.18 1012.77,201.72 1012.06,200.47"/>
    </edge>
    <edge id=":21677261_0" function="internal">
        <lane id=":21677261_0_0" index="0" speed="13.89" length="15.82" shape="1299.48,231.51 1283.73,230.12"/>
        <lane id=":21677261_0_1" index="1" speed="13.89" length="15.82" shape="1299.77,228.33 1284.00,226.93"/>
    </edge>
    <edge id=":21677261_2" function="internal">
        <lane id=":21677261_2_0" index="0" speed="8.16" length="13.87" shape="1299.77,228.33 1294.28,227.62 1290.36,226.66 1288.02,225.45 1287.25,223.98"/>
    </edge>
    <edge id=":21677261_3" function="internal">
        <lane id=":21677261_3_0" index="0" speed="7.33" length="11.00" shape="1299.77,228.33 1295.68,227.74 1292.76,226.82 1291.02,225.57 1290.45,224.01"/>
    </edge>
    <edge id=":21677261_4" function="internal">
        <lane id=":21677261_4_0" index="0" speed="8.31" length="2.22" shape="1296.85,224.06 1296.26,226.20"/>
    </edge>
    <edge id=":21677261_5" function="internal">
        <lane id=":21677261_5_0" index="0" speed="6.94" length="1.22" shape="1293.65,224.03 1293.20,225.17"/>
    </edge>
    <edge id=":21677261_6" function="internal">
        <lane id=":21677261_6_0" index="0" speed="3.65" length="1.18" shape="1293.65,224.03 1292.98,225.01"/>
    </edge>
    <edge id=":21677261_7" function="internal">
        <lane id=":21677261_7_0" index="0" speed="8.31" length="14.08" shape="1296.26,226.20 1296.00,227.13 1293.54,229.16 1289.45,230.16 1283.73,230.12"/>
    </edge>
    <edge id=":21677261_8" function="internal">
        <lane id=":21677261_8_0" index="0" speed="6.94" length="9.80" shape="1293.20,225.17 1293.03,225.61 1291.22,226.62 1288.21,227.06 1284.00,226.93"/>
    </edge>
    <edge id=":21677261_9" function="internal">
        <lane id=":21677261_9_0" index="0" speed="3.65" length="3.49" shape="1292.98,225.01 1292.84,225.23 1292.03,225.62 1291.24,225.21 1290.45,224.01"/>
    </edge>
    <edge id=":251150126_0" function="internal">
        <lane id=":251150126_0_0" index="0" speed="6.85" length="11.31" shape="455.07,136.97 455.44,133.92 456.78,131.88 459.08,130.84 462.35,130.79"/>
    </edge>
    <edge id=":251150126_1" function="internal">
        <lane id=":251150126_1_0" index="0" speed="5.03" length="5.56" shape="458.27,136.87 458.46,135.43 459.14,134.46 460.31,133.98 461.96,133.97"/>
    </edge>
    <edge id=":251150126_2" function="internal">
        <lane id=":251150126_2_0" index="0" speed="13.89" length="9.70" shape="453.18,128.53 455.87,129.33 457.72,129.91 459.58,130.37 462.35,130.79"/>
        <lane id=":251150126_2_1" index="1" speed="13.89" length="9.70" shape="452.34,131.62 455.17,132.45 457.10,133.06 459.06,133.53 461.96,133.97"/>
    </edge>
    <edge id=":252864801_0" function="internal">
        <lane id=":252864801_0_0" index="0" speed="13.89" length="15.80" shape="1007.19,180.77 1022.95,181.95"/>
        <lane id=":252864801_0_1" index="1" speed="13.89" length="15.80" shape="1006.95,183.96 1022.71,185.14"/>
    </edge>
    <edge id=":252864801_2" function="internal">
        <lane id=":252864801_2_0" index="0" speed="7.88" length="13.72" shape="1006.95,183.96 1012.48,184.56 1016.39,185.44 1018.69,186.58 1019.39,188.00"/>
    </edge>
    <edge id=":252864801_3" function="internal">
        <lane id=":252864801_3_0" index="0" speed="7.03" length="10.70" shape="1006.95,183.96 1011.08,184.46 1014.00,185.26 1015.70,186.36 1016.20,187.77"/>
    </edge>
    <edge id=":252864801_4" function="internal">
        <lane id=":252864801_4_0" index="0" speed="8.38" length="1.41" shape="1009.81,187.30 1010.30,185.98"/>
    </edge>
    <edge id=":252864801_5" function="internal">
        <lane id=":252864801_5_0" index="0" speed="7.02" length="0.85" shape="1013.00,187.53 1013.40,186.78"/>
    </edge>
    <edge id=":252864801_6" function="internal">
        <lane id=":252864801_6_0" index="0" speed="3.65" length="0.85" shape="1013.00,187.53 1013.53,186.86"/>
    </edge>
    <edge id=":252864801_7" function="internal">
        <lane id=":252864801_7_0" index="0" speed="8.38" length="14.28" shape="1010.30,185.98 1010.81,184.60 1013.33,182.81 1017.37,181.92 1022.95,181.95"/>
    </edge>
    <edge id=":252864801_8" function="internal">
        <lane id=":252864801_8_0" index="0" speed="7.02" length="9.85" shape="1013.40,186.78 1013.70,186.22 1015.54,185.38 1018.55,185.02 1022.71,185.14"/>
    </edge>
    <edge id=":252864801_9" function="internal">
        <lane id=":252864801_9_0" index="0" speed="3.65" length="3.82" shape="1013.53,186.86 1013.89,186.39 1014.72,186.05 1015.49,186.51 1016.20,187.77"/>
    </edge>
    <edge id=":252864802_0" function="internal">
        <lane id=":252864802_0_0" index="0" speed="13.89" length="16.13" shape="1284.66,201.94 1300.81,203.82"/>
        <lane id=":252864802_0_1" index="1" speed="13.89" length="16.13" shape="1284.42,205.13 1300.31,206.98"/>
    </edge>
    <edge id=":252864802_2" function="internal">
        <lane id=":252864802_2_0" index="0" speed="8.19" length="14.16" shape="1284.42,205.13 1289.92,205.78 1293.85,206.78 1296.20,208.13 1296.97,209.82"/>
    </edge>
    <edge id=":252864802_3" function="internal">
        <lane id=":252864802_3_0" index="0" speed="7.38" length="11.30" shape="1284.42,205.13 1288.52,205.69 1291.45,206.65 1293.20,208.02 1293.77,209.79"/>
    </edge>
    <edge id=":252864802_4" function="internal">
        <lane id=":252864802_4_0" index="0" speed="8.27" length="2.58" shape="1287.37,209.74 1288.01,207.24"/>
    </edge>
    <edge id=":252864802_5" function="internal">
        <lane id=":252864802_5_0" index="0" speed="6.87" length="1.47" shape="1290.57,209.76 1291.05,208.38"/>
    </edge>
    <edge id=":252864802_6" function="internal">
        <lane id=":252864802_6_0" index="0" speed="3.65" length="1.44" shape="1290.57,209.76 1291.38,208.57"/>
    </edge>
    <edge id=":252864802_7" function="internal">
        <lane id=":252864802_7_0" index="0" speed="8.27" length="14.34" shape="1288.01,207.24 1288.23,206.36 1290.76,204.25 1294.95,203.41 1300.81,203.82"/>
    </edge>
    <edge id=":252864802_8" function="internal">
        <lane id=":252864802_8_0" index="0" speed="6.87" length="9.86" shape="1291.05,208.38 1291.19,207.98 1293.02,206.92 1296.06,206.59 1300.31,206.98"/>
    </edge>
    <edge id=":252864802_9" function="internal">
        <lane id=":252864802_9_0" index="0" speed="3.65" length="3.23" shape="1291.38,208.57 1292.18,208.18 1292.98,208.58 1293.77,209.79"/>
    </edge>
    <edge id=":25661280_0" function="internal">
        <lane id=":25661280_0_0" index="0" speed="13.89" length="10.27" shape="4105.55,440.60 4103.75,442.79 4102.41,444.29 4101.45,445.94 4100.80,448.61"/>
        <lane id=":25661280_0_1" index="1" speed="13.89" length="10.27" shape="4102.96,438.71 4100.90,441.28 4099.41,443.06 4098.36,445.02 4097.64,448.13"/>
    </edge>
    <edge id=":25661280_2" function="internal">
        <lane id=":25661280_2_0" index="0" speed="7.23" length="11.51" shape="4095.67,439.90 4098.36,440.77 4100.11,442.51 4100.92,445.12 4100.80,448.61"/>
    </edge>
    <edge id=":25661280_3" function="internal">
        <lane id=":25661280_3_0" index="0" speed="5.54" length="6.33" shape="4095.24,443.07 4096.55,443.55 4097.39,444.55 4097.75,446.08 4097.64,448.13"/>
    </edge>
    <edge id=":262454829_0" function="internal">
        <lane id=":262454829_0_0" index="0" speed="6.09" length="7.34" shape="4098.39,464.74 4097.82,466.65 4096.78,467.97 4095.27,468.69 4093.28,468.82"/>
    </edge>
    <edge id=":262454829_1" function="internal">
        <lane id=":262454829_1_0" index="0" speed="3.91" length="2.45" shape="4095.22,464.27 4095.03,464.90 4094.69,465.34 4094.18,465.58 4093.52,465.63"/>
    </edge>
    <edge id=":26703689_0" function="internal">
        <lane id=":26703689_0_0" index="0" speed="13.89" length="15.87" shape="3624.40,427.64 3608.60,426.26"/>
        <lane id=":26703689_0_1" index="1" speed="13.89" length="15.87" shape="3624.69,424.45 3608.87,423.07"/>
    </edge>
    <edge id=":26703689_2" function="internal">
        <lane id=":26703689_2_0" index="0" speed="8.33" length="13.99" shape="3624.69,424.45 3619.20,423.75 3615.26,422.78 3612.88,421.55 3612.05,420.05"/>
    </edge>
    <edge id=":26703689_3" function="internal">
        <lane id=":26703689_3_0" index="0" speed="7.51" length="11.20" shape="3624.69,424.45 3620.61,423.85 3617.67,422.90 3615.88,421.60 3615.25,419.94"/>
    </edge>
    <edge id=":26703689_4" function="internal">
        <lane id=":26703689_4_0" index="0" speed="8.28" length="2.64" shape="3621.64,419.73 3621.08,422.30"/>
    </edge>
    <edge id=":26703689_5" function="internal">
        <lane id=":26703689_5_0" index="0" speed="6.90" length="1.41" shape="3618.44,419.83 3618.02,421.17"/>
    </edge>
    <edge id=":26703689_6" function="internal">
        <lane id=":26703689_6_0" index="0" speed="3.65" length="1.34" shape="3618.44,419.83 3617.74,420.97"/>
    </edge>
    <edge id=":26703689_7" function="internal">
        <lane id=":26703689_7_0" index="0" speed="8.28" length="14.02" shape="3621.08,422.30 3620.92,423.00 3618.51,425.18 3614.40,426.27 3608.60,426.26"/>
    </edge>
    <edge id=":26703689_8" function="internal">
        <lane id=":26703689_8_0" index="0" speed="6.90" length="9.79" shape="3618.02,421.17 3617.90,421.56 3616.12,422.67 3613.11,423.17 3608.87,423.07"/>
    </edge>
    <edge id=":26703689_9" function="internal">
        <lane id=":26703689_9_0" index="0" speed="3.65" length="3.33" shape="3617.74,420.97 3617.68,421.06 3616.90,421.49 3616.09,421.11 3615.25,419.94"/>
    </edge>
    <edge id=":26704447_0" function="internal">
        <lane id=":26704447_0_0" index="0" speed="13.89" length="10.17" shape="928.52,199.32 918.38,198.39"/>
        <lane id=":26704447_0_1" index="1" speed="13.89" length="10.17" shape="928.81,196.13 918.69,195.21"/>
    </edge>
    <edge id=":26704447_2" function="internal">
        <lane id=":26704447_2_0" index="0" speed="7.79" length="14.05" shape="928.81,196.13 923.26,195.39 919.37,194.33 917.16,192.93 916.62,191.21"/>
    </edge>
    <edge id=":26704447_3" function="internal">
        <lane id=":26704447_3_0" index="0" speed="6.95" length="10.96" shape="928.81,196.13 924.65,195.53 921.76,194.59 920.14,193.32 919.78,191.70"/>
    </edge>
    <edge id=":26704447_4" function="internal">
        <lane id=":26704447_4_0" index="0" speed="7.21" length="1.45" shape="926.10,192.68 925.67,194.06"/>
    </edge>
    <edge id=":26704447_5" function="internal">
        <lane id=":26704447_5_0" index="0" speed="5.49" length="1.05" shape="922.94,192.19 922.62,193.19"/>
    </edge>
    <edge id=":26704447_6" function="internal">
        <lane id=":26704447_6_0" index="0" speed="3.65" length="1.02" shape="922.94,192.19 922.25,192.94"/>
    </edge>
    <edge id=":26704447_7" function="internal">
        <lane id=":26704447_7_0" index="0" speed="7.21" length="9.37" shape="925.67,194.06 925.25,195.42 923.68,197.29 921.39,198.28 918.38,198.39"/>
    </edge>
    <edge id=":26704447_8" function="internal">
        <lane id=":26704447_8_0" index="0" speed="5.49" length="4.82" shape="922.62,193.19 922.48,193.65 921.62,194.63 920.36,195.15 918.69,195.21"/>
    </edge>
    <edge id=":26704447_9" function="internal">
        <lane id=":26704447_9_0" index="0" speed="3.65" length="3.65" shape="922.25,192.94 921.97,193.25 921.12,193.53 920.39,193.01 919.78,191.70"/>
    </edge>
    <edge id=":26704448_0" function="internal">
        <lane id=":26704448_0_0" index="0" speed="13.89" length="11.81" shape="919.86,173.57 931.73,174.37"/>
        <lane id=":26704448_0_1" index="1" speed="13.89" length="11.81" shape="919.76,176.77 931.46,177.56"/>
    </edge>
    <edge id=":26704448_2" function="internal">
        <lane id=":26704448_2_0" index="0" speed="6.71" length="10.57" shape="919.76,176.77 923.55,177.17 926.16,178.09 927.59,179.52 927.84,181.47"/>
    </edge>
    <edge id=":26704448_3" function="internal">
        <lane id=":26704448_3_0" index="0" speed="5.78" length="7.54" shape="919.76,176.77 922.14,177.10 923.76,177.91 924.60,179.21 924.67,180.98"/>
    </edge>
    <edge id=":26704448_4" function="internal">
        <lane id=":26704448_4_0" index="0" speed="8.68" length="6.02" shape="918.35,180.01 919.57,177.15 921.94,175.46"/>
    </edge>
    <edge id=":26704448_5" function="internal">
        <lane id=":26704448_5_0" index="0" speed="7.35" length="1.79" shape="921.51,180.49 922.35,178.91"/>
    </edge>
    <edge id=":26704448_6" function="internal">
        <lane id=":26704448_6_0" index="0" speed="3.65" length="1.75" shape="921.51,180.49 922.49,179.43 922.78,179.34"/>
    </edge>
    <edge id=":26704448_7" function="internal">
        <lane id=":26704448_7_0" index="0" speed="8.68" length="9.96" shape="921.94,175.46 922.21,175.26 926.26,174.33 931.73,174.37"/>
    </edge>
    <edge id=":26704448_8" function="internal">
        <lane id=":26704448_8_0" index="0" speed="7.35" length="9.40" shape="922.35,178.91 924.29,177.90 927.32,177.45 931.46,177.56"/>
    </edge>
    <edge id=":26704448_9" function="internal">
        <lane id=":26704448_9_0" index="0" speed="3.65" length="2.93" shape="922.78,179.34 923.34,179.16 924.07,179.68 924.67,180.98"/>
    </edge>
    <edge id=":26704482_0" function="internal">
        <lane id=":26704482_0_0" index="0" speed="3.99" length="1.80" shape="39.76,92.61 39.98,93.02 40.27,93.34 40.65,93.54 41.11,93.64"/>
    </edge>
    <edge id=":26704482_1" function="internal">
        <lane id=":26704482_1_0" index="0" speed="6.24" length="5.40" shape="36.76,93.73 37.41,94.98 38.30,95.91 39.44,96.53 40.82,96.83"/>
    </edge>
    <edge id=":26704584_0" function="internal">
        <lane id=":26704584_0_0" index="0" speed="13.89" length="4.07" shape="320.42,68.13 321.62,67.53 322.52,67.30 323.47,67.19 324.82,66.98"/>
        <lane id=":26704584_0_1" index="1" speed="13.89" length="4.07" shape="322.03,70.90 322.97,70.45 323.67,70.30 324.41,70.26 325.46,70.11"/>
    </edge>
    <edge id=":26704628_0" function="internal">
        <lane id=":26704628_0_0" index="0" speed="13.89" length="0.75" shape="339.72,204.03 339.38,204.01 339.15,203.99 338.93,203.94 338.61,203.84"/>
        <lane id=":26704628_0_1" index="1" speed="13.89" length="0.75" shape="339.89,200.84 339.77,200.83 339.70,200.82 339.62,200.81 339.52,200.77"/>
    </edge>
    <edge id=":26785753_0" function="internal">
        <lane id=":26785753_0_0" index="0" speed="13.89" length="13.78" shape="274.32,109.28 277.78,107.55 280.36,106.49 282.45,104.98 284.45,101.92"/>
        <lane id=":26785753_0_1" index="1" speed="13.89" length="13.78" shape="275.98,112.02 279.88,110.00 282.75,108.69 285.07,106.88 287.32,103.34"/>
    </edge>
    <edge id=":26785753_2" function="internal">
        <lane id=":26785753_2_0" index="0" speed="13.89" length="13.68" shape="279.01,114.60 284.45,101.92"/>
        <lane id=":26785753_2_1" index="1" speed="13.89" length="13.68" shape="281.97,115.81 287.32,103.34"/>
    </edge>
    <edge id=":26870674_0" function="internal">
        <lane id=":26870674_0_0" index="0" speed="13.89" length="14.43" shape="4084.30,468.14 4069.91,466.98"/>
        <lane id=":26870674_0_1" index="1" speed="13.89" length="14.43" shape="4084.54,464.95 4070.17,463.79"/>
    </edge>
    <edge id=":26870674_2" function="internal">
        <lane id=":26870674_2_0" index="0" speed="7.23" length="11.82" shape="4084.54,464.95 4080.71,464.29 4078.08,463.00 4076.64,461.06 4076.41,458.48"/>
    </edge>
    <edge id=":26870674_3" function="internal">
        <lane id=":26870674_3_0" index="0" speed="6.40" length="9.04" shape="4084.54,464.95 4082.10,464.41 4080.47,463.22 4079.63,461.37 4079.58,458.88"/>
    </edge>
    <edge id=":26873453_0" function="internal">
        <lane id=":26873453_0_0" index="0" speed="8.30" length="2.56" shape="3611.57,405.76 3612.13,403.27"/>
    </edge>
    <edge id=":26873453_1" function="internal">
        <lane id=":26873453_1_0" index="0" speed="6.91" length="1.35" shape="3614.77,405.66 3615.19,404.38"/>
    </edge>
    <edge id=":26873453_2" function="internal">
        <lane id=":26873453_2_0" index="0" speed="3.65" length="1.29" shape="3614.77,405.66 3615.45,404.56"/>
    </edge>
    <edge id=":26873453_7" function="internal">
        <lane id=":26873453_7_0" index="0" speed="8.30" length="13.94" shape="3612.13,403.27 3612.29,402.57 3614.69,400.41 3618.77,399.29 3624.53,399.20"/>
    </edge>
    <edge id=":26873453_8" function="internal">
        <lane id=":26873453_8_0" index="0" speed="6.91" length="9.77" shape="3615.19,404.38 3615.32,403.99 3617.09,402.89 3620.09,402.36 3624.32,402.40"/>
    </edge>
    <edge id=":26873453_9" function="internal">
        <lane id=":26873453_9_0" index="0" speed="3.65" length="3.39" shape="3615.45,404.56 3615.53,404.43 3616.32,404.01 3617.13,404.38 3617.97,405.55"/>
    </edge>
    <edge id=":26873453_3" function="internal">
        <lane id=":26873453_3_0" index="0" speed="13.89" length="15.78" shape="3608.85,397.92 3624.53,399.20"/>
        <lane id=":26873453_3_1" index="1" speed="13.89" length="15.78" shape="3608.54,401.10 3624.32,402.40"/>
    </edge>
    <edge id=":26873453_5" function="internal">
        <lane id=":26873453_5_0" index="0" speed="8.33" length="13.92" shape="3608.54,401.10 3614.03,401.83 3617.96,402.80 3620.34,404.01 3621.17,405.45"/>
    </edge>
    <edge id=":26873453_6" function="internal">
        <lane id=":26873453_6_0" index="0" speed="7.51" length="11.13" shape="3608.54,401.10 3612.62,401.72 3615.55,402.67 3617.34,403.95 3617.97,405.55"/>
    </edge>
    <edge id=":26873454_0" function="internal">
        <lane id=":26873454_0_0" index="0" speed="8.05" length="10.53" shape="4074.44,437.47 4077.15,437.34 4079.46,436.45 4081.36,434.81 4082.86,432.40"/>
    </edge>
    <edge id=":26873454_1" function="internal">
        <lane id=":26873454_1_0" index="0" speed="13.89" length="14.14" shape="4074.44,437.47 4088.58,438.93"/>
        <lane id=":26873454_1_1" index="1" speed="13.89" length="14.14" shape="4074.17,440.66 4088.15,442.10"/>
    </edge>
    <edge id=":26873454_3" function="internal">
        <lane id=":26873454_3_0" index="0" speed="13.89" length="13.54" shape="4078.05,445.47 4078.76,441.40 4079.68,438.71 4080.99,436.14 4082.86,432.40"/>
        <lane id=":26873454_3_1" index="1" speed="13.89" length="13.54" shape="4081.23,445.87 4081.90,442.09 4082.77,439.60 4084.01,437.22 4085.76,433.76"/>
    </edge>
    <edge id=":26873454_5" function="internal">
        <lane id=":26873454_5_0" index="0" speed="6.46" length="8.94" shape="4081.23,445.87 4081.88,443.90 4083.25,442.61 4085.34,442.01 4088.15,442.10"/>
    </edge>
    <edge id=":27011222_0" function="internal">
        <lane id=":27011222_0_0" index="0" speed="13.89" length="3.62" shape="2289.59,374.16 2288.47,374.43 2287.68,374.50 2286.87,374.51 2285.71,374.57"/>
        <lane id=":27011222_0_1" index="1" speed="13.89" length="3.62" shape="2288.74,371.08 2287.78,371.30 2287.11,371.35 2286.43,371.34 2285.45,371.38"/>
    </edge>
    <edge id=":27537747_0" function="internal">
        <lane id=":27537747_0_0" index="0" speed="13.89" length="0.30" shape="935.78,199.97 935.48,199.95"/>
        <lane id=":27537747_0_1" index="1" speed="13.89" length="0.30" shape="936.07,196.79 935.77,196.76"/>
    </edge>
    <edge id=":27537748_0" function="internal">
        <lane id=":27537748_0_0" index="0" speed="13.89" length="0.28" shape="1000.21,205.69 999.96,205.67"/>
        <lane id=":27537748_0_1" index="1" speed="13.89" length="0.28" shape="1000.55,202.51 1000.24,202.48"/>
    </edge>