<?xml version="1.0" encoding="UTF-8"?>

<!-- generated on Tue Jul 19 10:53:21 2016 by SUMO netconvert Version 0.26.0
<?xml version="1.0" encoding="UTF-8"?>

<configuration xmlns:xsi="http://www.w3.org/2001/XMLSchema-instance" xsi:noNamespaceSchemaLocation="http://sumo.dlr.de/xsd/netconvertConfiguration.xsd">

    <input>
        <node-files value="/tmp/vsimrti-allinone/vsimrti/scenarios/Tiergarten/sources/tiergarten.nod.xml"/>
        <edge-files value="/tmp/vsimrti-allinone/vsimrti/scenarios/Tiergarten/sources/tiergarten.edg.xml"/>
        <connection-files value="/tmp/vsimrti-allinone/vsimrti/scenarios/Tiergarten/sources/tiergarten.con.xml"/>
    </input>

    <output>
        <output-file value="/tmp/vsimrti-allinone/vsimrti/scenarios/Tiergarten/sources/tiergarten.net.xml"/>
    </output>

</configuration>
-->

<net version="0.25" xmlns:xsi="http://www.w3.org/2001/XMLSchema-instance" xsi:noNamespaceSchemaLocation="http://sumo.dlr.de/xsd/net_file.xsd">

    <location netOffset="-385769.05,-5819239.29" convBoundary="0.00,0.00,4124.15,464.01" origBoundary="385769.05,5819239.29,389893.20,5819703.30" projParameter="!"/>

    <edge id=":152533555_0" function="internal">
        <lane id=":152533555_0_0" index="0" speed="18.06" length="0.10" shape="3631.09,399.49 3631.11,399.49"/>
        <lane id=":152533555_0_1" index="1" speed="18.06" length="0.10" shape="3630.82,402.78 3630.86,402.78"/>
    </edge>
    <edge id=":197667550_0" function="internal">
        <lane id=":197667550_0_0" index="0" speed="18.06" length="0.81" shape="277.98,147.88 277.68,146.69"/>
        <lane id=":197667550_0_1" index="1" speed="18.06" length="0.81" shape="281.05,146.66 280.95,146.27"/>
    </edge>
    <edge id=":197687090_0" function="internal">
        <lane id=":197687090_0_0" index="0" speed="18.06" length="0.26" shape="2323.80,240.99 2324.09,241.24"/>
        <lane id=":197687090_0_1" index="1" speed="18.06" length="0.26" shape="2321.76,243.59 2321.86,243.67"/>
    </edge>
    <edge id=":213045012_0" function="internal">
        <lane id=":213045012_0_0" index="0" speed="18.06" length="0.10" shape="2909.44,366.78 2909.42,366.78"/>
        <lane id=":213045012_0_1" index="1" speed="18.06" length="0.10" shape="2909.67,363.49 2909.60,363.48"/>
    </edge>
    <edge id=":21487142_0" function="internal">
        <lane id=":21487142_0_0" index="0" speed="18.06" length="5.07" shape="284.36,163.55 281.56,159.83"/>
        <lane id=":21487142_0_1" index="1" speed="18.06" length="5.07" shape="284.36,163.55 284.46,158.07"/>
    </edge>
    <edge id=":21487142_2" function="internal">
        <lane id=":21487142_2_0" index="0" speed="18.06" length="4.88" shape="284.36,163.55 282.51,159.26"/>
        <lane id=":21487142_2_1" index="1" speed="18.06" length="4.88" shape="287.37,162.18 285.37,157.51"/>
    </edge>
    <edge id=":21487143_0" function="internal">
        <lane id=":21487143_0_0" index="0" speed="18.06" length="0.62" shape="296.30,180.38 295.63,179.73"/>
        <lane id=":21487143_0_1" index="1" speed="18.06" length="0.62" shape="298.37,177.81 298.16,177.60"/>
    </edge>
    <edge id=":21487144_0" function="internal">
        <lane id=":21487144_0_0" index="0" speed="18.06" length="0.22" shape="360.08,204.14 359.76,204.18"/>
        <lane id=":21487144_0_1" index="1" speed="18.06" length="0.22" shape="359.63,200.87 359.52,200.88"/>
    </edge>
    <edge id=":21487145_0" function="internal">
        <lane id=":21487145_0_0" index="0" speed="18.06" length="6.98" shape="438.05,160.65 432.00,161.80"/>
        <lane id=":21487145_0_1" index="1" speed="18.06" length="6.98" shape="436.82,157.59 429.35,159.84"/>
    </edge>
    <edge id=":21487145_2" function="internal">
        <lane id=":21487145_2_0" index="0" speed="18.06" length="6.44" shape="433.58,154.86 432.00,161.80"/>
        <lane id=":21487145_2_1" index="1" speed="18.06" length="6.44" shape="430.36,154.16 429.35,159.84"/>
    </edge>
    <edge id=":21487146_0" function="internal">
        <lane id=":21487146_0_0" index="0" speed="18.06" length="1.12" shape="395.40,70.76 396.86,71.60"/>
        <lane id=":21487146_0_1" index="1" speed="18.06" length="1.12" shape="394.27,73.86 394.75,74.14"/>
    </edge>
    <edge id=":21487147_0" function="internal">
        <lane id=":21487147_0_0" index="0" speed="18.06" length="1.44" shape="296.79,81.96 298.40,80.49"/>
        <lane id=":21487147_0_1" index="1" speed="18.06" length="1.44" shape="299.50,83.84 300.03,83.36"/>
    </edge>
    <edge id=":21487148_0" function="internal">
        <lane id=":21487148_0_0" index="0" speed="18.06" length="1.11" shape="410.85,188.46 409.52,189.48"/>
        <lane id=":21487148_0_1" index="1" speed="18.06" length="1.11" shape="408.42,186.22 407.99,186.55"/>
    </edge>
    <edge id=":21487167_0" function="internal">
        <lane id=":21487167_0_0" index="0" speed="18.06" length="0.19" shape="472.08,131.70 472.17,131.71"/>
        <lane id=":21487167_0_1" index="1" speed="18.06" length="0.19" shape="471.62,134.97 471.90,135.00"/>
    </edge>
    <edge id=":21487168_0" function="internal">
        <lane id=":21487168_0_0" index="0" speed="18.06" length="6.98" shape="435.50,117.42 441.27,120.34"/>
        <lane id=":21487168_0_1" index="1" speed="18.06" length="6.98" shape="432.77,119.27 439.28,122.98"/>
    </edge>
    <edge id=":21487168_2" function="internal">
        <lane id=":21487168_2_0" index="0" speed="18.06" length="6.31" shape="432.77,119.27 435.71,125.03"/>
        <lane id=":21487168_2_1" index="1" speed="18.06" length="6.31" shape="432.77,119.27 432.43,125.41"/>
    </edge>
    <edge id=":21487169_0" function="internal">
        <lane id=":21487169_0_0" index="0" speed="18.06" length="9.39" shape="2205.71,329.48 2205.00,328.38 2203.56,327.24 2201.41,326.06 2198.54,324.83"/>
        <lane id=":21487169_0_1" index="1" speed="18.06" length="9.39" shape="2205.71,329.48 2204.57,326.67 2203.19,324.44 2201.58,322.80 2199.74,321.75"/>
    </edge>
    <edge id=":21487169_2" function="internal">
        <lane id=":21487169_2_0" index="0" speed="18.06" length="10.63" shape="2205.71,329.48 2204.72,326.42 2204.11,324.31 2203.63,322.16 2202.98,319.01"/>
        <lane id=":21487169_2_1" index="1" speed="18.06" length="10.63" shape="2208.84,328.44 2207.89,325.49 2207.31,323.46 2206.84,321.39 2206.22,318.35"/>
    </edge>
    <edge id=":21487170_0" function="internal">
        <lane id=":21487170_0_0" index="0" speed="18.06" length="14.32" shape="2200.84,267.49 2204.35,265.39 2206.90,264.07 2209.14,262.43 2211.72,259.37"/>
        <lane id=":21487170_0_1" index="1" speed="18.06" length="14.32" shape="2202.69,270.23 2206.49,267.93 2209.22,266.45 2211.61,264.64 2214.40,261.30"/>
    </edge>
    <edge id=":21487170_2" function="internal">
        <lane id=":21487170_2_0" index="0" speed="18.06" length="14.21" shape="2205.81,272.67 2207.21,268.55 2208.13,265.68 2209.36,262.99 2211.72,259.37"/>
        <lane id=":21487170_2_1" index="1" speed="18.06" length="14.21" shape="2208.90,273.83 2210.21,269.95 2211.05,267.25 2212.19,264.70 2214.40,261.30"/>
    </edge>
    <edge id=":21487171_0" function="internal">
        <lane id=":21487171_0_0" index="0" speed="18.06" length="0.66" shape="2244.29,368.52 2243.38,368.12"/>
        <lane id=":21487171_0_1" index="1" speed="18.06" length="0.66" shape="2245.30,365.38 2245.00,365.25"/>
    </edge>
    <edge id=":21487172_0" function="internal">
        <lane id=":21487172_0_0" index="0" speed="18.06" length="0.60" shape="2274.10,375.32 2273.20,375.30"/>
        <lane id=":21487172_0_1" index="1" speed="18.06" length="0.60" shape="2273.85,372.03 2273.56,372.02"/>
    </edge>
    <edge id=":21487173_0" function="internal">
        <lane id=":21487173_0_0" index="0" speed="18.06" length="6.78" shape="2349.92,333.81 2343.93,333.68"/>
        <lane id=":21487173_0_1" index="1" speed="18.06" length="6.78" shape="2348.76,330.72 2341.26,331.73"/>
    </edge>
    <edge id=":21487173_2" function="internal">
        <lane id=":21487173_2_0" index="0" speed="18.06" length="5.86" shape="2345.89,327.76 2343.93,333.68"/>
        <lane id=":21487173_2_1" index="1" speed="18.06" length="5.86" shape="2342.85,326.48 2341.26,331.73"/>
    </edge>
    <edge id=":21487174_0" function="internal">
        <lane id=":21487174_0_0" index="0" speed="18.06" length="5.92" shape="2349.22,278.84 2355.10,280.45"/>
        <lane id=":21487174_0_1" index="1" speed="18.06" length="5.92" shape="2349.22,278.84 2353.11,283.08"/>
    </edge>
    <edge id=":21487174_2" function="internal">
        <lane id=":21487174_2_0" index="0" speed="18.06" length="5.99" shape="2349.22,278.84 2349.65,285.21"/>
        <lane id=":21487174_2_1" index="1" speed="18.06" length="5.99" shape="2346.23,280.23 2346.40,285.82"/>
    </edge>
    <edge id=":21487175_0" function="internal">
        <lane id=":21487175_0_0" index="0" speed="18.06" length="1.19" shape="2311.73,231.96 2313.32,232.79"/>
        <lane id=":21487175_0_1" index="1" speed="18.06" length="1.19" shape="2310.76,235.12 2311.28,235.39"/>
    </edge>
    <edge id=":21487176_0" function="internal">
        <lane id=":21487176_0_0" index="0" speed="18.06" length="0.39" shape="2291.20,225.72 2291.77,225.86"/>
        <lane id=":21487176_0_1" index="1" speed="18.06" length="0.39" shape="2290.62,228.97 2290.80,229.01"/>
    </edge>
    <edge id=":21487178_0" function="internal">
        <lane id=":21487178_0_0" index="0" speed="18.06" length="0.69" shape="2392.01,324.25 2391.67,324.26"/>
        <lane id=":21487178_0_1" index="1" speed="18.06" length="0.69" shape="2392.28,320.96 2391.23,320.99"/>
    </edge>
    <edge id=":21668930_0" function="internal">
        <lane id=":21668930_0_0" index="0" speed="18.06" length="9.50" shape="1017.82,207.35 1008.35,206.54"/>
        <lane id=":21668930_0_1" index="1" speed="18.06" length="9.50" shape="1018.10,204.06 1008.63,203.25"/>
    </edge>
    <edge id=":21668930_2" function="internal">
        <lane id=":21668930_2_0" index="0" speed="18.06" length="7.86" shape="1018.10,204.06 1015.33,203.63 1013.39,202.88 1012.27,201.80 1011.97,200.41"/>
    </edge>
    <edge id=":21668930_3" function="internal">
        <lane id=":21668930_3_0" index="0" speed="18.06" length="7.88" shape="1015.26,200.65 1014.76,202.00 1013.49,202.88 1011.45,203.30 1008.63,203.25"/>
    </edge>
    <edge id=":21668930_4" function="internal">
        <lane id=":21668930_4_0" index="0" speed="18.06" length="4.82" shape="1015.26,200.65 1014.35,201.83 1013.49,202.18 1012.70,201.71 1011.97,200.41"/>
    </edge>
    <edge id=":21677261_0" function="internal">
        <lane id=":21677261_0_0" index="0" speed="18.06" length="9.50" shape="1296.34,231.17 1286.89,230.33"/>
        <lane id=":21677261_0_1" index="1" speed="18.06" length="9.50" shape="1296.64,227.88 1287.17,227.04"/>
    </edge>
    <edge id=":21677261_2" function="internal">
        <lane id=":21677261_2_0" index="0" speed="18.06" length="7.98" shape="1296.64,227.88 1293.91,227.43 1291.96,226.64 1290.79,225.53 1290.41,224.08"/>
    </edge>
    <edge id=":21677261_3" function="internal">
        <lane id=":21677261_3_0" index="0" speed="18.06" length="8.08" shape="1293.71,224.10 1293.29,225.59 1292.06,226.58 1290.02,227.06 1287.17,227.04"/>
    </edge>
    <edge id=":21677261_4" function="internal">
        <lane id=":21677261_4_0" index="0" speed="18.06" length="4.82" shape="1293.71,224.10 1292.88,225.33 1292.05,225.74 1291.23,225.32 1290.41,224.08"/>
    </edge>
    <edge id=":248919692_0" function="internal">
        <lane id=":248919692_0_0" index="0" speed="18.06" length="0.13" shape="1339.64,209.46 1339.81,209.48"/>
        <lane id=":248919692_0_1" index="1" speed="18.06" length="0.13" shape="1339.39,212.76 1339.32,212.75"/>
    </edge>
    <edge id=":249734328_0" function="internal">
        <lane id=":249734328_0_0" index="0" speed="18.06" length="0.54" shape="3598.55,396.49 3599.36,396.52"/>
        <lane id=":249734328_0_1" index="1" speed="18.06" length="0.54" shape="3598.71,399.78 3598.98,399.79"/>
    </edge>
    <edge id=":251106770_0" function="internal">
        <lane id=":251106770_0_0" index="0" speed="18.06" length="0.82" shape="325.21,199.82 324.09,199.32"/>
        <lane id=":251106770_0_1" index="1" speed="18.06" length="0.82" shape="326.17,196.66 325.80,196.49"/>
    </edge>
    <edge id=":251106773_0" function="internal">
        <lane id=":251106773_0_0" index="0" speed="18.06" length="1.19" shape="276.39,121.24 276.76,119.49"/>
        <lane id=":251106773_0_1" index="1" speed="18.06" length="1.19" shape="279.68,121.33 279.81,120.76"/>
    </edge>
    <edge id=":251150120_0" function="internal">
        <lane id=":251150120_0_0" index="0" speed="18.06" length="0.33" shape="398.57,195.20 398.12,195.41"/>
        <lane id=":251150120_0_1" index="1" speed="18.06" length="0.33" shape="397.04,192.28 396.90,192.35"/>
    </edge>
    <edge id=":251150123_0" function="internal">
        <lane id=":251150123_0_0" index="0" speed="18.06" length="1.68" shape="264.80,143.07 264.08,142.66"/>
        <lane id=":251150123_0_1" index="1" speed="18.06" length="1.68" shape="267.12,140.72 264.92,139.47"/>
    </edge>
    <edge id=":251150126_0" function="internal">
        <lane id=":251150126_0_0" index="0" speed="18.06" length="2.35" shape="454.89,136.57 455.23,133.77"/>
        <lane id=":251150126_0_1" index="1" speed="18.06" length="2.35" shape="458.18,136.47 458.38,135.02 458.61,134.68"/>
    </edge>
    <edge id=":251150126_4" function="internal">
        <lane id=":251150126_4_0" index="0" speed="18.06" length="8.77" shape="455.23,133.77 455.27,133.44 456.64,131.36 459.01,130.33 462.37,130.34"/>
    </edge>
    <edge id=":251150126_5" function="internal">
        <lane id=":251150126_5_0" index="0" speed="18.06" length="3.71" shape="458.61,134.68 459.06,134.06 460.24,133.59 461.91,133.61"/>
    </edge>
    <edge id=":251150126_2" function="internal">
        <lane id=":251150126_2_0" index="0" speed="18.06" length="9.86" shape="453.01,128.01 462.37,130.34"/>
        <lane id=":251150126_2_1" index="1" speed="18.06" length="9.86" shape="452.15,131.20 455.02,132.03 456.98,132.64 458.97,133.12 461.91,133.61"/>
    </edge>
    <edge id=":252864801_0" function="internal">
        <lane id=":252864801_0_0" index="0" speed="18.06" length="9.44" shape="1010.40,180.72 1019.78,181.47"/>
        <lane id=":252864801_0_1" index="1" speed="18.06" length="9.44" shape="1010.11,184.01 1019.55,184.77"/>
    </edge>
    <edge id=":252864801_2" function="internal">
        <lane id=":252864801_2_0" index="0" speed="18.06" length="7.83" shape="1010.11,184.01 1012.87,184.45 1014.81,185.20 1015.93,186.26 1016.23,187.63"/>
    </edge>
    <edge id=":252864801_3" function="internal">
        <lane id=":252864801_3_0" index="0" speed="18.06" length="7.84" shape="1012.94,187.39 1013.44,186.07 1014.71,185.19 1016.74,184.76 1019.55,184.77"/>
    </edge>
    <edge id=":252864801_4" function="internal">
        <lane id=":252864801_4_0" index="0" speed="18.06" length="4.82" shape="1012.94,187.39 1013.86,186.21 1014.71,185.86 1015.50,186.34 1016.23,187.63"/>
    </edge>
    <edge id=":252864802_0" function="internal">
        <lane id=":252864802_0_0" index="0" speed="18.06" length="9.79" shape="1287.79,201.93 1297.64,203.08"/>
        <lane id=":252864802_0_1" index="1" speed="18.06" length="9.79" shape="1287.54,205.22 1297.13,206.34"/>
    </edge>
    <edge id=":252864802_2" function="internal">
        <lane id=":252864802_2_0" index="0" speed="18.06" length="8.15" shape="1287.54,205.22 1290.28,205.65 1292.24,206.45 1293.41,207.63 1293.80,209.18"/>
    </edge>
    <edge id=":252864802_3" function="internal">
        <lane id=":252864802_3_0" index="0" speed="18.06" length="8.29" shape="1290.50,209.16 1290.92,207.54 1292.17,206.53 1294.24,206.13 1297.13,206.34"/>
    </edge>
    <edge id=":252864802_4" function="internal">
        <lane id=":252864802_4_0" index="0" speed="18.06" length="4.82" shape="1290.50,209.16 1291.33,207.93 1292.16,207.52 1292.98,207.94 1293.80,209.18"/>
    </edge>
    <edge id=":25661280_0" function="internal">
        <lane id=":25661280_0_0" index="0" speed="18.06" length="10.35" shape="4105.76,440.24 4100.92,448.36"/>
        <lane id=":25661280_0_1" index="1" speed="18.06" length="10.35" shape="4103.10,438.29 4100.99,440.90 4099.46,442.71 4098.39,444.71 4097.66,447.88"/>
    </edge>
    <edge id=":25661280_2" function="internal">
        <lane id=":25661280_2_0" index="0" speed="18.06" length="9.07" shape="4095.73,439.45 4098.44,440.34 4100.21,442.12 4101.04,444.80 4100.92,448.36"/>
        <lane id=":25661280_2_1" index="1" speed="18.06" length="9.07" shape="4095.27,442.72 4096.58,443.20 4097.41,444.23 4097.77,445.79 4097.66,447.88"/>
    </edge>
    <edge id=":262454829_0" function="internal">
        <lane id=":262454829_0_0" index="0" speed="18.06" length="5.00" shape="4098.52,464.78 4097.95,466.74 4096.88,468.09 4095.32,468.83 4093.28,468.95"/>
        <lane id=":262454829_0_1" index="1" speed="18.06" length="5.00" shape="4095.26,464.30 4095.07,464.94 4094.72,465.38 4094.21,465.62 4093.55,465.66"/>
    </edge>
    <edge id=":265786533_0" function="internal">
        <lane id=":265786533_0_0" index="0" speed="18.06" length="0.10" shape="1062.54,184.52 1062.55,184.52"/>
        <lane id=":265786533_0_1" index="1" speed="18.06" length="0.10" shape="1062.29,187.81 1062.30,187.81"/>
    </edge>
    <edge id=":26703089_0" function="internal">
        <lane id=":26703089_0_0" index="0" speed="18.06" length="0.77" shape="2304.03,369.85 2302.95,370.30"/>
        <lane id=":26703089_0_1" index="1" speed="18.06" length="0.77" shape="2302.41,366.98 2302.06,367.12"/>
    </edge>
    <edge id=":26703090_0" function="internal">
        <lane id=":26703090_0_0" index="0" speed="18.06" length="0.48" shape="2318.01,361.90 2317.42,362.30"/>
        <lane id=":26703090_0_1" index="1" speed="18.06" length="0.48" shape="2315.99,359.29 2315.79,359.42"/>
    </edge>
    <edge id=":26703663_0" function="internal">
        <lane id=":26703663_0_0" index="0" speed="18.06" length="0.30" shape="2262.50,225.05 2262.95,224.98"/>
        <lane id=":26703663_0_1" index="1" speed="18.06" length="0.30" shape="2263.21,228.28 2263.35,228.25"/>
    </edge>
    <edge id=":26703689_0" function="internal">
        <lane id=":26703689_0_0" index="0" speed="18.06" length="9.53" shape="3621.26,427.43 3611.77,426.61"/>
        <lane id=":26703689_0_1" index="1" speed="18.06" length="9.53" shape="3621.55,424.15 3612.05,423.32"/>
    </edge>
    <edge id=":26703689_2" function="internal">
        <lane id=":26703689_2_0" index="0" speed="18.06" length="8.07" shape="3621.55,424.15 3618.83,423.70 3616.86,422.91 3615.66,421.77 3615.22,420.30"/>
    </edge>
    <edge id=":26703689_3" function="internal">
        <lane id=":26703689_3_0" index="0" speed="18.06" length="8.20" shape="3618.52,420.18 3618.17,421.76 3616.97,422.81 3614.93,423.33 3612.05,423.32"/>
    </edge>
    <edge id=":26703689_4" function="internal">
        <lane id=":26703689_4_0" index="0" speed="18.06" length="4.82" shape="3618.52,420.18 3617.74,421.45 3616.93,421.89 3616.09,421.50 3615.22,420.30"/>
    </edge>
    <edge id=":26704447_0" function="internal">
        <lane id=":26704447_0_0" index="0" speed="18.06" length="4.91" shape="925.39,199.13 920.42,198.73"/>
        <lane id=":26704447_0_1" index="1" speed="18.06" length="4.91" shape="925.65,195.84 920.84,195.45"/>
    </edge>
    <edge id=":26704447_2" function="internal">
        <lane id=":26704447_2_0" index="0" speed="18.06" length="8.06" shape="925.65,195.84 922.84,195.40 920.90,194.59 919.85,193.42 919.67,191.89"/>
    </edge>
    <edge id=":26704447_3" function="internal">
        <lane id=":26704447_3_0" index="0" speed="18.06" length="4.07" shape="922.94,192.40 922.61,193.81 922.16,194.79 921.56,195.34 920.84,195.45"/>
    </edge>
    <edge id=":26704447_4" function="internal">
        <lane id=":26704447_4_0" index="0" speed="18.06" length="4.82" shape="922.94,192.40 921.93,193.50 921.05,193.78 920.30,193.24 919.67,191.89"/>
    </edge>
    <edge id=":26704448_0" function="internal">
        <lane id=":26704448_0_0" index="0" speed="18.06" length="8.99" shape="919.18,173.24 928.60,173.93"/>
        <lane id=":26704448_0_1" index="1" speed="18.06" length="8.99" shape="919.80,176.58 928.32,177.22"/>
    </edge>
    <edge id=":26704448_2" function="internal">
        <lane id=":26704448_2_0" index="0" speed="18.06" length="8.02" shape="921.53,179.94 922.15,178.55 923.48,177.63 925.54,177.19 928.32,177.22"/>
    </edge>
    <edge id=":26704448_3" function="internal">
        <lane id=":26704448_3_0" index="0" speed="18.06" length="4.82" shape="921.53,179.94 922.54,178.84 923.42,178.56 924.17,179.10 924.79,180.45"/>
    </edge>
    <edge id=":26704482_0" function="internal">
        <lane id=":26704482_0_0" index="0" speed="18.06" length="3.66" shape="39.88,92.49 40.09,92.91 40.39,93.22 40.77,93.42 41.23,93.52"/>
        <lane id=":26704482_0_1" index="1" speed="18.06" length="3.66" shape="36.79,93.64 37.45,94.92 38.36,95.88 39.52,96.50 40.93,96.81"/>
    </edge>
    <edge id=":26704584_0" function="internal">
        <lane id=":26704584_0_0" index="0" speed="18.06" length="0.99" shape="320.42,67.99 321.82,67.45"/>
        <lane id=":26704584_0_1" index="1" speed="18.06" length="0.99" shape="322.05,70.86 322.50,70.68"/>
    </edge>
    <edge id=":26704628_0" function="internal">
        <lane id=":26704628_0_0" index="0" speed="18.06" length="0.75" shape="339.63,204.05 338.52,203.85"/>
        <lane id=":26704628_0_1" index="1" speed="18.06" length="0.75" shape="339.84,200.76 339.48,200.69"/>
    </edge>
    <edge id=":26738489_0" function="internal">
        <lane id=":26738489_0_0" index="0" speed="18.06" length="0.10" shape="802.86,160.98 802.86,160.98"/>
        <lane id=":26738489_0_1" index="1" speed="18.06" length="0.10" shape="802.51,164.26 802.51,164.26"/>
    </edge>
    <edge id=":26785752_0" function="internal">
        <lane id=":26785752_0_0" index="0" speed="18.06" length="0.51" shape="287.24,95.83 287.63,95.17"/>
        <lane id=":26785752_0_1" index="1" speed="18.06" length="0.51" shape="290.22,97.27 290.34,97.05"/>
    </edge>
    <edge id=":26785753_0" function="internal">
        <lane id=":26785753_0_0" index="0" speed="18.06" length="14.00" shape="274.07,109.25 277.58,107.53 280.21,106.47 282.34,104.96 284.34,101.85"/>
        <lane id=":26785753_0_1" index="1" speed="18.06" length="14.00" shape="275.76,112.08 279.75,110.06 282.69,108.74 285.05,106.90 287.31,103.29"/>
    </edge>
    <edge id=":26785753_2" function="internal">
        <lane id=":26785753_2_0" index="0" speed="18.06" length="13.90" shape="278.77,114.69 280.35,110.84 281.42,108.21 282.56,105.61 284.34,101.85"/>
        <lane id=":26785753_2_1" index="1" speed="18.06" length="13.90" shape="281.81,115.96 283.37,112.17 284.43,109.57 285.56,107.00 287.31,103.29"/>
    </edge>
    <edge id=":26870674_0" function="internal">
        <lane id=":26870674_0_0" index="0" speed="18.06" length="9.56" shape="4081.79,468.02 4072.26,467.23"/>
        <lane id=":26870674_0_1" index="1" speed="18.06" length="9.56" shape="4082.06,464.73 4072.54,463.94"/>
    </edge>
    <edge id=":26870674_2" function="internal">
        <lane id=":26870674_2_0" index="0" speed="18.06" length="6.55" shape="4082.06,464.73 4079.24,464.30 4077.29,463.52 4076.20,462.39 4075.97,460.92"/>
        <lane id=":26870674_2_1" index="1" speed="18.06" length="6.55" shape="4082.06,464.73 4080.68,464.42 4079.75,463.75 4079.27,462.72 4079.24,461.33"/>
    </edge>
    <edge id=":26870692_0" function="internal">
        <lane id=":26870692_0_0" index="0" speed="18.06" length="1.67" shape="4088.90,419.05 4090.52,417.13"/>
        <lane id=":26870692_0_1" index="1" speed="18.06" length="1.67" shape="4091.88,420.46 4092.41,419.83"/>
    </edge>
    <edge id=":26873451_0" function="internal">
        <lane id=":26873451_0_0" index="0" speed="18.06" length="0.48" shape="2394.67,298.69 2394.90,298.73"/>
        <lane id=":26873451_0_1" index="1" speed="18.06" length="0.48" shape="2393.93,301.91 2394.64,302.02"/>
    </edge>
    <edge id=":26873453_0" function="internal">
        <lane id=":26873453_0_0" index="0" speed="18.06" length="8.14" shape="3614.71,405.33 3615.06,403.79 3616.25,402.75 3618.28,402.21 3621.15,402.16"/>
    </edge>
    <edge id=":26873453_1" function="internal">
        <lane id=":26873453_1_0" index="0" speed="18.06" length="4.82" shape="3614.71,405.33 3615.49,404.07 3616.30,403.63 3617.14,404.01 3618.00,405.22"/>
    </edge>
    <edge id=":26873453_2" function="internal">
        <lane id=":26873453_2_0" index="0" speed="18.06" length="9.37" shape="3612.11,398.03 3621.36,398.87"/>
        <lane id=":26873453_2_1" index="1" speed="18.06" length="9.37" shape="3611.72,401.30 3621.15,402.16"/>
    </edge>
    <edge id=":26873453_4" function="internal">
        <lane id=":26873453_4_0" index="0" speed="18.06" length="8.02" shape="3611.72,401.30 3614.43,401.82 3616.38,402.65 3617.57,403.78 3618.00,405.22"/>
    </edge>
    <edge id=":26873454_0" function="internal">
        <lane id=":26873454_0_0" index="0" speed="18.06" length="8.38" shape="4075.61,437.09 4077.75,436.99 4079.58,436.28 4081.09,434.96 4082.30,433.05"/>
    </edge>
    <edge id=":26873454_1" function="internal">
        <lane id=":26873454_1_0" index="0" speed="18.06" length="11.72" shape="4075.61,437.09 4079.10,437.37 4081.49,437.57 4083.88,437.82 4087.35,438.28"/>
        <lane id=":26873454_1_1" index="1" speed="18.06" length="11.72" shape="4075.33,440.38 4078.77,440.66 4081.13,440.85 4083.48,441.10 4086.90,441.55"/>
    </edge>
    <edge id=":26873454_3" function="internal">
        <lane id=":26873454_3_0" index="0" speed="18.06" length="11.12" shape="4078.09,443.79 4078.70,440.43 4079.54,438.23 4080.70,436.12 4082.30,433.05"/>
        <lane id=":26873454_3_1" index="1" speed="18.06" length="11.12" shape="4081.37,444.19 4081.94,441.14 4082.73,439.15 4083.82,437.25 4085.28,434.45"/>
    </edge>
    <edge id=":26873454_5" function="internal">
        <lane id=":26873454_5_0" index="0" speed="18.06" length="6.92" shape="4081.37,444.19 4081.87,442.77 4082.96,441.86 4084.63,441.45 4086.90,441.55"/>
    </edge>
    <edge id=":26914395_0" function="internal">
        <lane id=":26914395_0_0" index="0" speed="18.06" length="1.20" shape="4114.64,428.28 4114.21,428.68"/>
        <lane id=":26914395_0_1" index="1" speed="18.06" length="1.20" shape="4112.87,425.49 4111.55,426.73"/>
    </edge>
    <edge id=":26938203_0" function="internal">
        <lane id=":26938203_0_0" index="0" speed="18.06" length="0.86" shape="447.44,156.94 447.03,157.04"/>
        <lane id=":26938203_0_1" index="1" speed="18.06" length="0.86" shape="447.05,153.66 445.80,153.98"/>
    </edge>
    <edge id=":26938204_0" function="internal">
        <lane id=":26938204_0_0" index="0" speed="18.06" length="1.23" shape="450.31,127.16 450.85,127.43"/>
        <lane id=":26938204_0_1" index="1" speed="18.06" length="1.23" shape="448.32,129.79 449.99,130.61"/>
    </edge>
    <edge id=":26938208_0" function="internal">
        <lane id=":26938208_0_0" index="0" speed="18.06" length="0.95" shape="347.62,61.94 349.05,61.85"/>
        <lane id=":26938208_0_1" index="1" speed="18.06" length="0.95" shape="348.31,65.17 348.78,65.14"/>
    </edge>
    <edge id=":26938209_0" function="internal">
        <lane id=":26938209_0_0" index="0" speed="18.06" length="0.86" shape="376.70,64.14 377.97,64.42"/>
        <lane id=":26938209_0_1" index="1" speed="18.06" length="0.86" shape="376.42,67.43 376.84,67.52"/>
    </edge>
    <edge id=":26938211_0" function="internal">
        <lane id=":26938211_0_0" index="0" speed="18.06" length="0.89" shape="287.60,170.21 286.88,169.08"/>
        <lane id=":26938211_0_1" index="1" speed="18.06" length="0.89" shape="290.12,168.08 289.89,167.71"/>
    </edge>
    <edge id=":26938212_0" function="internal">
        <lane id=":26938212_0_0" index="0" speed="18.06" length="0.43" shape="306.91,188.88 306.38,188.51"/>
        <lane id=":26938212_0_1" index="1" speed="18.06" length="0.43" shape="308.63,186.06 308.45,185.94"/>
    </edge>
    <edge id=":26938213_0" function="internal">
        <lane id=":26938213_0_0" index="0" speed="18.06" length="0.44" shape="351.50,204.77 350.83,204.77"/>
        <lane id=":26938213_0_1" index="1" speed="18.06" length="0.44" shape="351.26,201.48 351.04,201.48"/>
    </edge>
    <edge id=":26938214_0" function="internal">
        <lane id=":26938214_0_0" index="0" speed="18.06" length="0.78" shape="385.41,200.48 384.27,200.79"/>
        <lane id=":26938214_0_1" index="1" speed="18.06" length="0.78" shape="384.19,197.42 383.81,197.52"/>
    </edge>
    <edge id=":26938215_0" function="internal">
        <lane id=":26938215_0_0" index="0" speed="18.06" length="0.34" shape="417.99,180.67 417.66,181.07"/>
        <lane id=":26938215_0_1" index="1" speed="18.06" length="0.34" shape="415.34,178.70 415.23,178.83"/>
    </edge>
    <edge id=":26938217_0" function="internal">
        <lane id=":26938217_0_0" index="0" speed="18.06" length="1.07" shape="437.13,137.21 437.05,138.82"/>
        <lane id=":26938217_0_1" index="1" speed="18.06" length="1.07" shape="433.85,137.59 433.83,138.12"/>
    </edge>
    <edge id=":26938219_0" function="internal">
        <lane id=":26938219_0_0" index="0" speed="18.06" length="0.42" shape="249.21,112.60 249.41,112.60"/>
        <lane id=":26938219_0_1" index="1" speed="18.06" length="0.42" shape="248.90,115.88 249.53,115.90"/>
    </edge>
    <edge id=":26938220_0" function="internal">
        <lane id=":26938220_0_0" index="0" speed="18.06" length="1.61" shape="269.29,111.87 270.05,111.64"/>
        <lane id=":26938220_0_1" index="1" speed="18.06" length="1.61" shape="269.42,115.16 271.74,114.48"/>
    </edge>