<?xml version="1.0" encoding="UTF-8"?>

<!-- generated on 02/05/21 16:19:53 by Eclipse SUMO netconvert Version 1.7.0
<configuration xmlns:xsi="http://www.w3.org/2001/XMLSchema-instance" xsi:noNamespaceSchemaLocation="http://sumo.dlr.de/xsd/netconvertConfiguration.xsd">

    <input>
        <node-files value="C:\dev\rep\git\mosaic\eclipse-mosaic\test\scenarios\SendAndReceive\application\tiergarten2.nod.xml"/>
        <edge-files value="C:\dev\rep\git\mosaic\eclipse-mosaic\test\scenarios\SendAndReceive\application\tiergarten2.edg.xml"/>
        <connection-files value="C:\dev\rep\git\mosaic\eclipse-mosaic\test\scenarios\SendAndReceive\application\tiergarten2.con.xml"/>
    </input>

    <output>
        <output-file value="C:\dev\rep\git\mosaic\eclipse-mosaic\test\scenarios\SendAndReceive\application\tiergarten2.net.xml"/>
    </output>

    <report>
        <aggregate-warnings value="5"/>
    </report>

</configuration>
-->

<net version="1.6" junctionCornerDetail="5" limitTurnSpeed="5.50" xmlns:xsi="http://www.w3.org/2001/XMLSchema-instance" xsi:noNamespaceSchemaLocation="http://sumo.dlr.de/xsd/net_file.xsd">

    <location netOffset="-385769.05,-5819239.15" convBoundary="0.00,0.00,4124.17,464.03" origBoundary="385769.05,5819239.15,389893.22,5819703.18" projParameter="!"/>

    <edge id=":21487142_0" function="internal">
        <lane id=":21487142_0_0" index="0" speed="13.89" length="11.20" shape="287.16,161.82 285.63,159.10 284.03,157.29 282.16,155.66 279.82,153.50"/>
    </edge>
    <edge id=":21487142_1" function="internal">
        <lane id=":21487142_1_0" index="0" speed="13.89" length="11.18" shape="287.16,161.82 282.95,151.46"/>
    </edge>
    <edge id=":21487143_0" function="internal">
        <lane id=":21487143_0_0" index="0" speed="13.89" length="0.33" shape="298.45,178.09 298.37,178.03 298.32,177.98 298.27,177.94 298.21,177.86"/>
    </edge>
    <edge id=":21487144_0" function="internal">
        <lane id=":21487144_0_0" index="0" speed="13.89" length="3.08" shape="359.59,200.80 356.52,201.03"/>
    </edge>
    <edge id=":21487145_0" function="internal">
        <lane id=":21487145_0_0" index="0" speed="11.86" length="6.86" shape="433.10,159.26 431.18,159.97 429.82,160.46 428.67,161.22 427.36,162.72"/>
    </edge>
    <edge id=":21487145_1" function="internal">
        <lane id=":21487145_1_0" index="0" speed="13.89" length="6.74" shape="429.86,156.55 429.45,158.51 429.09,159.85 428.49,161.09 427.36,162.72"/>
    </edge>
    <edge id=":21487146_0" function="internal">
        <lane id=":21487146_0_0" index="0" speed="13.89" length="0.55" shape="394.24,74.23 394.39,74.29 394.50,74.33 394.59,74.40 394.71,74.50"/>
    </edge>
    <edge id=":21487148_0" function="internal">
        <lane id=":21487148_0_0" index="0" speed="13.89" length="3.58" shape="408.42,186.44 407.65,187.15 407.01,187.49 406.31,187.74 405.33,188.17"/>
    </edge>
    <edge id=":21487168_0" function="internal">
        <lane id=":21487168_0_0" index="0" speed="13.89" length="6.93" shape="430.38,116.05 431.62,117.65 432.69,118.56 433.90,119.33 435.60,120.51"/>
    </edge>
    <edge id=":21487168_1" function="internal">
        <lane id=":21487168_1_0" index="0" speed="13.26" length="6.84" shape="430.38,116.05 431.38,117.77 431.76,119.09 431.87,120.52 432.02,122.55"/>
    </edge>
    <edge id=":21487169_0" function="internal">
        <lane id=":21487169_0_0" index="0" speed="8.23" length="7.11" shape="2208.56,327.53 2207.90,326.33 2206.77,325.22 2205.18,324.20 2203.11,323.27"/>
    </edge>
    <edge id=":21487169_1" function="internal">
        <lane id=":21487169_1_0" index="0" speed="13.89" length="7.51" shape="2208.56,327.53 2207.86,325.42 2207.43,323.95 2207.08,322.47 2206.63,320.28"/>
    </edge>
    <edge id=":21487170_0" function="internal">
        <lane id=":21487170_0_0" index="0" speed="13.89" length="8.55" shape="2207.45,267.32 2209.62,265.98 2211.15,265.09 2212.50,264.01 2214.09,262.08"/>
    </edge>
    <edge id=":21487170_1" function="internal">
        <lane id=":21487170_1_0" index="0" speed="13.89" length="8.52" shape="2210.55,269.77 2211.39,267.38 2211.95,265.73 2212.70,264.17 2214.09,262.08"/>
    </edge>
    <edge id=":21487173_0" function="internal">
        <lane id=":21487173_0_0" index="0" speed="11.58" length="7.37" shape="2344.46,332.52 2342.37,333.22 2340.88,333.70 2339.62,334.49 2338.23,336.09"/>
    </edge>
    <edge id=":21487173_1" function="internal">
        <lane id=":21487173_1_0" index="0" speed="13.89" length="7.35" shape="2341.58,329.58 2340.77,331.61 2340.19,332.99 2339.46,334.30 2338.23,336.09"/>
    </edge>
    <edge id=":21487174_0" function="internal">
        <lane id=":21487174_0_0" index="0" speed="13.89" length="7.75" shape="2343.68,275.12 2344.78,277.07 2345.88,278.18 2347.24,279.08 2349.15,280.39"/>
    </edge>
    <edge id=":21487174_1" function="internal">
        <lane id=":21487174_1_0" index="0" speed="13.89" length="7.72" shape="2343.68,275.12 2344.57,277.21 2345.02,278.71 2345.30,280.27 2345.69,282.53"/>
    </edge>
    <edge id=":21487175_0" function="internal">
        <lane id=":21487175_0_0" index="0" speed="13.89" length="3.57" shape="2310.76,235.49 2311.72,235.89 2312.30,236.32 2312.83,236.85 2313.64,237.54"/>
    </edge>
    <edge id=":21668930_0" function="internal">
        <lane id=":21668930_0_0" index="0" speed="13.89" length="9.44" shape="1018.08,204.29 1008.68,203.39"/>
    </edge>
    <edge id=":21668930_1" function="internal">
        <lane id=":21668930_1_0" index="0" speed="6.13" length="7.82" shape="1018.08,204.29 1015.35,203.86 1013.44,203.10 1012.34,202.00 1012.05,200.58"/>
    </edge>
    <edge id=":21668930_2" function="internal">
        <lane id=":21668930_2_0" index="0" speed="6.05" length="1.19" shape="1015.24,200.81 1014.84,201.93"/>
    </edge>
    <edge id=":21668930_3" function="internal">
        <lane id=":21668930_3_0" index="0" speed="3.65" length="1.24" shape="1015.24,200.81 1014.48,201.79"/>
    </edge>
    <edge id=":21668930_4" function="internal">
        <lane id=":21668930_4_0" index="0" speed="6.05" length="6.66" shape="1014.84,201.93 1014.74,202.19 1013.48,203.08 1011.46,203.48 1008.68,203.39"/>
    </edge>
    <edge id=":21668930_5" function="internal">
        <lane id=":21668930_5_0" index="0" speed="3.65" length="3.43" shape="1014.48,201.79 1014.36,201.95 1013.53,202.29 1012.76,201.83 1012.05,200.58"/>
    </edge>
    <edge id=":21677261_0" function="internal">
        <lane id=":21677261_0_0" index="0" speed="13.89" length="9.41" shape="1296.58,228.03 1287.20,227.20"/>
    </edge>
    <edge id=":21677261_1" function="internal">
        <lane id=":21677261_1_0" index="0" speed="6.31" length="7.89" shape="1296.58,228.03 1293.88,227.59 1291.96,226.81 1290.82,225.69 1290.45,224.25"/>
    </edge>
    <edge id=":21677261_2" function="internal">
        <lane id=":21677261_2_0" index="0" speed="6.01" length="1.38" shape="1293.64,224.28 1293.27,225.61"/>
    </edge>
    <edge id=":21677261_3" function="internal">
        <lane id=":21677261_3_0" index="0" speed="3.65" length="1.44" shape="1293.64,224.28 1292.83,225.47"/>
    </edge>
    <edge id=":21677261_4" function="internal">
        <lane id=":21677261_4_0" index="0" speed="6.01" length="6.59" shape="1293.27,225.61 1293.23,225.76 1292.02,226.75 1290.01,227.23 1287.20,227.20"/>
    </edge>
    <edge id=":21677261_5" function="internal">
        <lane id=":21677261_5_0" index="0" speed="3.65" length="3.23" shape="1292.83,225.47 1292.03,225.87 1291.23,225.46 1290.45,224.25"/>
    </edge>
    <edge id=":251150126_0" function="internal">
        <lane id=":251150126_0_0" index="0" speed="4.96" length="1.91" shape="458.27,136.87 458.44,135.43 458.69,135.05"/>
    </edge>
    <edge id=":251150126_2" function="internal">
        <lane id=":251150126_2_0" index="0" speed="4.96" length="3.47" shape="458.69,135.05 459.08,134.46 460.18,133.96 461.73,133.94"/>
    </edge>
    <edge id=":251150126_1" function="internal">
        <lane id=":251150126_1_0" index="0" speed="13.89" length="6.35" shape="455.56,132.50 457.38,133.02 458.62,133.39 459.87,133.67 461.73,133.94"/>
    </edge>
    <edge id=":252864801_0" function="internal">
        <lane id=":252864801_0_0" index="0" speed="13.89" length="9.40" shape="1010.14,184.20 1019.52,184.90"/>
    </edge>
    <edge id=":252864801_1" function="internal">
        <lane id=":252864801_1_0" index="0" speed="6.09" length="7.76" shape="1010.14,184.20 1012.88,184.59 1014.80,185.32 1015.90,186.38 1016.20,187.76"/>
    </edge>
    <edge id=":252864801_2" function="internal">
        <lane id=":252864801_2_0" index="0" speed="6.08" length="1.10" shape="1013.00,187.53 1013.39,186.50"/>
    </edge>
    <edge id=":252864801_3" function="internal">
        <lane id=":252864801_3_0" index="0" speed="3.65" length="1.15" shape="1013.00,187.53 1013.71,186.62"/>
    </edge>
    <edge id=":252864801_4" function="internal">
        <lane id=":252864801_4_0" index="0" speed="6.08" length="6.66" shape="1013.39,186.50 1013.50,186.20 1014.75,185.32 1016.75,184.88 1019.52,184.90"/>
    </edge>
    <edge id=":252864801_5" function="internal">
        <lane id=":252864801_5_0" index="0" speed="3.65" length="3.53" shape="1013.71,186.62 1013.89,186.39 1014.72,186.05 1015.49,186.50 1016.20,187.76"/>
    </edge>
    <edge id=":252864802_0" function="internal">
        <lane id=":252864802_0_0" index="0" speed="13.89" length="9.56" shape="1287.62,205.38 1297.12,206.48"/>
    </edge>
    <edge id=":252864802_1" function="internal">
        <lane id=":252864802_1_0" index="0" speed="6.33" length="8.06" shape="1287.62,205.38 1290.32,205.80 1292.25,206.60 1293.40,207.77 1293.77,209.32"/>
    </edge>
    <edge id=":252864802_2" function="internal">
        <lane id=":252864802_2_0" index="0" speed="5.94" length="1.54" shape="1290.57,209.29 1290.96,207.80"/>
    </edge>
    <edge id=":252864802_3" function="internal">
        <lane id=":252864802_3_0" index="0" speed="3.65" length="1.44" shape="1290.57,209.29 1291.38,208.10"/>
    </edge>
    <edge id=":252864802_4" function="internal">
        <lane id=":252864802_4_0" index="0" speed="5.94" length="6.65" shape="1290.96,207.80 1290.99,207.68 1292.23,206.67 1294.27,206.28 1297.12,206.48"/>
    </edge>
    <edge id=":252864802_5" function="internal">
        <lane id=":252864802_5_0" index="0" speed="3.65" length="3.23" shape="1291.38,208.10 1292.19,207.70 1292.98,208.11 1293.77,209.32"/>
    </edge>
    <edge id=":25661280_0" function="internal">
        <lane id=":25661280_0_0" index="0" speed="13.05" length="6.60" shape="4100.82,441.65 4099.61,443.20 4098.75,444.28 4098.17,445.48 4097.75,447.36"/>
    </edge>
    <edge id=":25661280_1" function="internal">
        <lane id=":25661280_1_0" index="0" speed="5.29" length="2.14" shape="4095.24,443.07 4096.56,443.50 4097.10,444.03"/>
    </edge>
    <edge id=":25661280_2" function="internal">
        <lane id=":25661280_2_0" index="0" speed="5.29" length="3.52" shape="4097.10,444.03 4097.41,444.35 4097.81,445.64 4097.75,447.36"/>
    </edge>
    <edge id=":262454829_0" function="internal">
        <lane id=":262454829_0_0" index="0" speed="3.91" length="2.45" shape="4095.22,464.27 4095.03,464.90 4094.69,465.34 4094.18,465.58 4093.52,465.63"/>
    </edge>
    <edge id=":26703689_0" function="internal">
        <lane id=":26703689_0_0" index="0" speed="13.89" length="9.44" shape="3621.48,424.16 3612.08,423.34"/>
    </edge>
    <edge id=":26703689_1" function="internal">
        <lane id=":26703689_1_0" index="0" speed="6.43" length="7.97" shape="3621.48,424.16 3618.80,423.71 3616.87,422.92 3615.69,421.79 3615.26,420.32"/>
    </edge>
    <edge id=":26703689_2" function="internal">
        <lane id=":26703689_2_0" index="0" speed="5.97" length="1.61" shape="3618.46,420.21 3618.10,421.78"/>
    </edge>
    <edge id=":26703689_3" function="internal">
        <lane id=":26703689_3_0" index="0" speed="3.65" length="1.44" shape="3618.46,420.21 3617.70,421.44"/>
    </edge>
    <edge id=":26703689_4" function="internal">
        <lane id=":26703689_4_0" index="0" speed="5.97" length="6.49" shape="3618.10,421.78 3616.92,422.83 3614.92,423.35 3612.08,423.34"/>
    </edge>
    <edge id=":26703689_5" function="internal">
        <lane id=":26703689_5_0" index="0" speed="3.65" length="3.23" shape="3617.70,421.44 3616.91,421.86 3616.10,421.49 3615.26,420.32"/>
    </edge>
    <edge id=":26704447_0" function="internal">
        <lane id=":26704447_0_0" index="0" speed="13.89" length="6.95" shape="925.61,195.85 918.69,195.21"/>
    </edge>
    <edge id=":26704447_1" function="internal">
        <lane id=":26704447_1_0" index="0" speed="6.02" length="7.94" shape="925.61,195.85 922.85,195.38 920.95,194.57 919.92,193.41 919.75,191.90"/>
    </edge>
    <edge id=":26704447_2" function="internal">
        <lane id=":26704447_2_0" index="0" speed="5.43" length="1.18" shape="922.91,192.39 922.54,193.51"/>
    </edge>
    <edge id=":26704447_3" function="internal">
        <lane id=":26704447_3_0" index="0" speed="3.65" length="1.24" shape="922.91,192.39 922.07,193.31"/>
    </edge>
    <edge id=":26704447_4" function="internal">
        <lane id=":26704447_4_0" index="0" speed="5.43" length="4.53" shape="922.54,193.51 922.46,193.76 921.61,194.68 920.35,195.17 918.69,195.21"/>
    </edge>
    <edge id=":26704447_5" function="internal">
        <lane id=":26704447_5_0" index="0" speed="3.65" length="3.43" shape="922.07,193.31 921.94,193.45 921.09,193.73 920.36,193.21 919.75,191.90"/>
    </edge>
    <edge id=":26704448_0" function="internal">
        <lane id=":26704448_0_0" index="0" speed="13.89" length="8.52" shape="919.76,176.77 928.27,177.29"/>
    </edge>
    <edge id=":26704448_1" function="internal">
        <lane id=":26704448_1_0" index="0" speed="5.69" length="7.26" shape="919.76,176.77 922.15,177.08 923.77,177.82 924.63,178.99 924.73,180.60"/>
    </edge>
    <edge id=":26704448_2" function="internal">
        <lane id=":26704448_2_0" index="0" speed="6.31" length="1.40" shape="921.57,180.11 922.12,178.82"/>
    </edge>
    <edge id=":26704448_3" function="internal">
        <lane id=":26704448_3_0" index="0" speed="3.65" length="1.44" shape="921.57,180.11 922.54,179.05"/>
    </edge>
    <edge id=":26704448_4" function="internal">
        <lane id=":26704448_4_0" index="0" speed="6.31" length="6.59" shape="922.12,178.82 922.18,178.68 923.50,177.74 925.53,177.27 928.27,177.29"/>
    </edge>
    <edge id=":26704448_5" function="internal">
        <lane id=":26704448_5_0" index="0" speed="3.65" length="3.23" shape="922.54,179.05 923.40,178.77 924.13,179.29 924.73,180.60"/>
    </edge>
    <edge id=":26704482_0" function="internal">
        <lane id=":26704482_0_0" index="0" speed="3.99" length="1.80" shape="37.47,95.61 37.68,96.03 37.98,96.34 38.36,96.54 38.82,96.64"/>
    </edge>
    <edge id=":26704584_0" function="internal">
        <lane id=":26704584_0_0" index="0" speed="13.89" length="3.55" shape="322.03,70.90 322.97,70.45 323.67,70.30 324.41,70.26 325.46,70.11"/>
    </edge>
    <edge id=":26704628_0" function="internal">
        <lane id=":26704628_0_0" index="0" speed="13.89" length="3.39" shape="339.89,200.84 338.90,200.72 338.24,200.53 337.59,200.25 336.64,199.92"/>
    </edge>
    <edge id=":26785753_0" function="internal">
        <lane id=":26785753_0_0" index="0" speed="12.40" length="8.34" shape="280.56,109.25 282.77,108.08 284.36,107.29 285.64,106.21 286.90,104.18"/>
    </edge>
    <edge id=":26785753_1" function="internal">
        <lane id=":26785753_1_0" index="0" speed="13.89" length="8.34" shape="283.59,111.83 286.90,104.18"/>
    </edge>
    <edge id=":26870674_0" function="internal">
        <lane id=":26870674_0_0" index="0" speed="13.89" length="11.21" shape="4084.54,464.95 4073.36,464.06"/>
    </edge>
    <edge id=":26870674_1" function="internal">
        <lane id=":26870674_1_0" index="0" speed="6.40" length="9.04" shape="4084.54,464.95 4082.10,464.41 4080.47,463.22 4079.63,461.37 4079.58,458.88"/>
    </edge>
    <edge id=":26873453_0" function="internal">
        <lane id=":26873453_0_0" index="0" speed="5.98" length="1.58" shape="3614.76,405.34 3615.11,403.80"/>
    </edge>
    <edge id=":26873453_1" function="internal">
        <lane id=":26873453_1_0" index="0" speed="3.65" length="1.44" shape="3614.76,405.34 3615.52,404.11"/>
    </edge>
    <edge id=":26873453_4" function="internal">
        <lane id=":26873453_4_0" index="0" speed="5.98" length="6.46" shape="3615.11,403.80 3616.29,402.76 3618.29,402.22 3621.11,402.18"/>
    </edge>
    <edge id=":26873453_5" function="internal">
        <lane id=":26873453_5_0" index="0" speed="3.65" length="3.23" shape="3615.52,404.11 3616.31,403.69 3617.12,404.06 3617.96,405.23"/>
    </edge>
    <edge id=":26873453_2" function="internal">
        <lane id=":26873453_2_0" index="0" speed="13.89" length="9.39" shape="3611.75,401.42 3621.11,402.18"/>
    </edge>
    <edge id=":26873453_3" function="internal">
        <lane id=":26873453_3_0" index="0" speed="6.44" length="7.93" shape="3611.75,401.42 3614.43,401.88 3616.35,402.67 3617.53,403.79 3617.96,405.23"/>
    </edge>
    <edge id=":26873454_0" function="internal">
        <lane id=":26873454_0_0" index="0" speed="7.37" length="8.71" shape="4077.36,440.93 4079.62,440.83 4081.54,440.11 4083.11,438.76 4084.34,436.79"/>
    </edge>
    <edge id=":26873454_1" function="internal">
        <lane id=":26873454_1_0" index="0" speed="13.89" length="9.86" shape="4077.36,440.93 4087.17,441.97"/>
    </edge>
    <edge id=":26873454_2" function="internal">
        <lane id=":26873454_2_0" index="0" speed="13.89" length="9.55" shape="4081.25,445.74 4081.70,442.97 4082.27,441.12 4083.10,439.34 4084.34,436.79"/>
    </edge>
    <edge id=":26873454_3" function="internal">
        <lane id=":26873454_3_0" index="0" speed="6.15" length="3.01" shape="4081.25,445.74 4081.83,443.82 4082.51,443.08"/>
    </edge>
    <edge id=":26873454_4" function="internal">
        <lane id=":26873454_4_0" index="0" speed="6.15" length="5.00" shape="4082.51,443.08 4083.01,442.55 4084.79,441.93 4087.17,441.97"/>
    </edge>
    <edge id=":27011222_0" function="internal">
        <lane id=":27011222_0_0" index="0" speed="13.89" length="0.30" shape="2288.74,371.08 2288.65,371.11 2288.59,371.12 2288.53,371.13 2288.44,371.13"/>
    </edge>
    <edge id=":27537747_0" function="internal">
        <lane id=":27537747_0_0" index="0" speed="13.89" length="0.30" shape="936.07,196.79 935.77,196.76"/>
    </edge>
    <edge id=":27537748_0" function="internal">
        <lane id=":27537748_0_0" index="0" speed="13.89" length="0.28" shape="1000.53,202.51 1000.25,202.48"/>
    </edge>
    <edge id=":27537749_0" function="internal">
        <lane id=":27537749_0_0" index="0" speed="13.89" length="0.29" shape="1001.66,183.56 1001.95,183.59"/>
    </edge>
    <edge id=":27537750_0" function="internal">
        <lane id=":27537750_0_0" index="0" speed="13.89" length="0.30" shape="939.19,178.21 939.48,178.24"/>
    </edge>
    <edge id=":299080425_0" function="internal">
        <lane id=":299080425_0_0" index="0" speed="13.89" length="0.41" shape="2250.27,231.44 2250.38,231.38 2250.45,231.35 2250.53,231.33 2250.65,231.30"/>
    </edge>
    <edge id=":408194192_0" function="internal">
        <lane id=":408194192_0_0" index="0" speed="13.89" length="11.20" shape="702.82,171.27 691.65,170.42"/>
    </edge>
    <edge id=":408194192_1" function="internal">
        <lane id=":408194192_1_0" index="0" speed="6.52" length="9.09" shape="702.82,171.27 700.39,170.66 698.74,169.43 697.87,167.58 697.77,165.10"/>
    </edge>
    <edge id=":408194194_0" function="internal">
        <lane id=":408194194_0_0" index="0" speed="13.89" length="11.27" shape="693.34,153.18 704.58,154.04"/>
    </edge>
    <edge id=":408194194_1" function="internal">
        <lane id=":408194194_1_0" index="0" speed="6.55" length="4.28" shape="698.40,159.16 699.01,156.70 700.05,155.30"/>
    </edge>
    <edge id=":408194194_2" function="internal">
        <lane id=":408194194_2_0" index="0" speed="6.55" length="4.87" shape="700.05,155.30 700.25,155.03 702.10,154.14 704.58,154.04"/>
    </edge>
    <edge id=":408194196_0" function="internal">
        <lane id=":408194196_0_0" index="0" speed="13.89" length="0.14" shape="902.25,192.46 902.21,192.45 902.18,192.44 902.15,192.44 902.11,192.44"/>
    </edge>
    <edge id=":415838100_0" function="internal">
        <lane id=":415838100_0_0" index="0" speed="13.89" length="6.21" shape="461.97,152.33 460.14,152.24 458.88,152.30 457.63,152.47 455.80,152.71"/>
    </edge>
    <edge id=":415838100_1" function="internal">
        <lane id=":415838100_1_0" index="0" speed="5.29" length="5.13" shape="461.97,152.33 460.56,152.03 459.53,151.40 458.90,150.44 458.65,149.14"/>
    </edge>
    <edge id=":423839224_0" function="internal">
        <lane id=":423839224_0_0" index="0" speed="13.89" length="5.22" shape="914.35,176.45 915.89,176.62 916.95,176.69 918.01,176.72 919.56,176.76"/>
    </edge>
    <edge id=":423839224_1" function="internal">
        <lane id=":423839224_1_0" index="0" speed="5.09" length="5.12" shape="914.35,176.45 915.74,176.82 916.67,177.52 917.16,178.55 917.19,179.93"/>
    </edge>
    <edge id=":423839225_0" function="internal">
        <lane id=":423839225_0_0" index="0" speed="13.89" length="8.88" shape="918.49,195.19 915.87,194.93 914.08,194.72 912.29,194.43 909.71,193.93"/>
    </edge>
    <edge id=":423839225_1" function="internal">
        <lane id=":423839225_1_0" index="0" speed="6.38" length="4.33" shape="916.03,189.28 915.37,191.73 914.25,193.13"/>
    </edge>
    <edge id=":423839225_2" function="internal">
        <lane id=":423839225_2_0" index="0" speed="6.38" length="4.78" shape="914.25,193.13 914.09,193.33 912.20,194.06 909.71,193.93"/>
    </edge>
    <edge id=":428788319_0" function="internal">
        <lane id=":428788319_0_0" index="0" speed="13.89" length="11.19" shape="677.90,152.02 689.05,152.90"/>
    </edge>
    <edge id=":428788319_1" function="internal">
        <lane id=":428788319_1_0" index="0" speed="6.50" length="9.03" shape="677.90,152.02 680.31,152.57 681.97,153.77 682.86,155.60 682.99,158.07"/>
    </edge>
    <edge id=":428788320_0" function="internal">
        <lane id=":428788320_0_0" index="0" speed="13.89" length="11.16" shape="687.55,170.15 676.42,169.25"/>
    </edge>
    <edge id=":428788320_1" function="internal">
        <lane id=":428788320_1_0" index="0" speed="6.51" length="4.27" shape="682.46,164.13 681.90,166.54 680.85,168.00"/>
    </edge>
    <edge id=":428788320_2" function="internal">
        <lane id=":428788320_2_0" index="0" speed="6.51" length="4.74" shape="680.85,168.00 680.71,168.20 678.88,169.10 676.42,169.25"/>
    </edge>

    <edge id="1_26704526_26704482" from="26704526" to="26704482" priority="-1">
        <lane id="1_26704526_26704482_0" index="0" speed="13.89" length="102.68" shape="1.50,-0.56 37.47,95.61"/>
    </edge>
    <edge id="23352698_21668930_252864801" from="21668930" to="252864801" priority="-1">
        <lane id="23352698_21668930_252864801_0" index="0" speed="13.89" length="13.09" shape="1012.05,200.58 1013.00,187.53"/>
    </edge>
    <edge id="23352698_252864801_21668930" from="252864801" to="21668930" priority="-1">
        <lane id="23352698_252864801_21668930_0" index="0" speed="13.89" length="13.09" shape="1016.20,187.76 1015.24,200.81"/>
    </edge>
    <edge id="23352699_21677261_252864802" from="21677261" to="252864802" priority="-1">
        <lane id="23352699_21677261_252864802_0" index="0" speed="13.89" length="14.96" shape="1290.45,224.25 1290.57,209.29"/>
    </edge>
    <edge id="23352699_252864802_21677261" from="252864802" to="21677261" priority="-1">
        <lane id="23352699_252864802_21677261_0" index="0" speed="13.89" length="14.96" shape="1293.77,209.32 1293.64,224.28"/>
    </edge>
    <edge id="24240250_262454829_26870674" from="262454829" to="26870674" priority="-1">
        <lane id="24240250_262454829_26870674_0" index="0" speed="13.89" length="9.01" shape="4093.52,465.63 4084.54,464.95"/>
    </edge>
    <edge id="24240250_26703689_21487173" from="26703689" to="21487173" priority="-1" shape="3616.92,422.14 3366.80,401.05 3189.49,384.69 3083.98,374.35 2963.23,365.63 2949.29,364.67 2927.43,362.62 2909.74,362.17 2696.92,344.52 2391.72,319.21 2365.13,322.79 2338.37,333.17">
        <lane id="24240250_26703689_21487173_0" index="0" speed="13.89" length="1273.74" shape="3612.08,423.34 3366.66,402.64 3189.34,386.28 3083.84,375.94 2963.12,367.23 2949.16,366.26 2927.33,364.22 2909.65,363.77 2696.79,346.11 2391.76,320.82 2365.53,324.35 2344.46,332.52"/>
    </edge>
    <edge id="24240250_26870674_26703689" from="26870674" to="26703689" priority="-1" shape="4080.67,463.05 3897.83,448.06 3759.25,435.06 3616.92,422.14">
        <lane id="24240250_26870674_26703689_0" index="0" speed="13.89" length="453.64" shape="4073.36,464.06 3897.69,449.65 3759.10,436.65 3621.48,424.16"/>
    </edge>
    <edge id="24242895_25661280_262454829" from="25661280" to="262454829" priority="-1">
        <lane id="24242895_25661280_262454829_0" index="0" speed="13.89" length="17.10" shape="4097.75,447.36 4095.22,464.27"/>
    </edge>
    <edge id="24242895_25661282_25661280" from="25661282" to="25661280" priority="-1" shape="4124.17,416.65 4110.96,425.01 4096.51,444.86">
        <lane id="24242895_25661282_25661280_0" index="0" speed="13.89" length="34.44" shape="4125.03,418.00 4112.07,426.20 4100.82,441.65"/>
    </edge>
    <edge id="25184999_26704628_21487143" from="26704628" to="21487143" priority="-1" shape="339.97,199.24 326.67,195.30 309.46,184.66 299.43,176.83">
        <lane id="25184999_26704628_21487143_0" index="0" speed="13.89" length="44.43" shape="336.64,199.92 326.01,196.77 308.54,185.97 298.45,178.09"/>
    </edge>
    <edge id="25185001_26785753_26704584" from="26785753" to="26704584" priority="-1" shape="287.26,107.07 291.71,98.05 300.86,85.11 322.84,72.28">
        <lane id="25185001_26785753_26704584_0" index="0" speed="13.89" length="49.87" shape="286.90,104.18 290.33,97.23 299.75,83.90 322.03,70.90"/>
    </edge>
    <edge id="25185002_21487142_26785753" from="21487142" to="26785753" priority="-1" shape="287.76,159.27 282.60,146.23 280.95,133.96 281.32,121.64 287.26,107.07">
        <lane id="25185002_21487142_26785753_0" index="0" speed="13.89" length="40.87" shape="282.95,151.46 281.04,146.64 279.35,134.04 279.73,121.30 283.59,111.83"/>
    </edge>
    <edge id="25185003_21487145_21487148" from="21487145" to="21487148" priority="-1" shape="427.50,159.85 414.00,177.99 407.24,185.36">
        <lane id="25185003_21487145_21487148_0" index="0" speed="13.89" length="30.39" shape="427.36,162.72 415.23,179.01 408.42,186.44"/>
    </edge>
    <edge id="25185004_21487168_21487145" from="21487168" to="21487145" priority="-1" shape="429.90,118.19 432.24,138.09 427.50,159.85">
        <lane id="25185004_21487168_21487145_0" index="0" speed="13.89" length="34.54" shape="432.02,122.55 433.86,138.17 429.86,156.55"/>
    </edge>
    <edge id="25185005_21487148_21487144" from="21487148" to="21487144" priority="-1" shape="407.24,185.36 396.30,191.13 383.60,196.10 359.39,199.21">
        <lane id="25185005_21487148_21487144_0" index="0" speed="13.89" length="47.99" shape="405.33,188.17 396.97,192.59 384.00,197.66 359.59,200.80"/>
    </edge>
    <edge id="25185006_21487146_21487168" from="21487146" to="21487168" priority="-1" shape="393.69,75.73 410.52,89.77 418.23,101.06 429.90,118.19">
        <lane id="25185006_21487146_21487168_0" index="0" speed="13.89" length="55.26" shape="394.71,74.50 411.72,88.68 419.55,100.16 430.38,116.05"/>
    </edge>
    <edge id="25185007_26704584_21487146" from="26704584" to="21487146" priority="-1" shape="322.84,72.28 348.68,67.01 376.32,69.34 393.69,75.73">
        <lane id="25185007_26704584_21487146_0" index="0" speed="13.89" length="70.51" shape="325.46,70.11 348.59,65.40 376.67,67.76 394.24,74.23"/>
    </edge>
    <edge id="25185008_21487143_21487142" from="21487143" to="21487142" priority="-1" shape="299.43,176.83 291.38,167.26 287.76,159.27">
        <lane id="25185008_21487143_21487142_0" index="0" speed="13.89" length="19.65" shape="298.21,177.86 290.01,168.12 287.16,161.82"/>
    </edge>
    <edge id="25973438_26870674_26873454" from="26870674" to="26873454" priority="-1">
        <lane id="25973438_26870674_26873454_0" index="0" speed="13.89" length="13.24" shape="4079.58,458.88 4081.25,445.74"/>
    </edge>
    <edge id="28764302_26873454_26870695" from="26873454" to="26870695" priority="-1" shape="4083.20,443.04 4093.39,421.16 4114.05,407.12">
        <lane id="28764302_26873454_26870695_0" index="0" speed="13.89" length="43.85" shape="4084.34,436.79 4092.13,420.08 4113.15,405.80"/>
    </edge>
    <edge id="30194724_299080425_21487175" from="299080425" to="21487175" priority="-1" shape="2251.00,232.86 2263.57,230.03 2277.00,228.45 2290.32,230.69 2310.28,237.02">
        <lane id="30194724_299080425_21487175_0" index="0" speed="13.89" length="61.70" shape="2250.65,231.30 2263.30,228.45 2277.04,226.83 2290.70,229.13 2310.76,235.49"/>
    </edge>
    <edge id="30194725_21487173_27011222" from="21487173" to="27011222" priority="-1" shape="2338.37,333.17 2326.82,349.14 2314.99,358.32 2301.63,365.84 2288.31,369.54">
        <lane id="30194725_21487173_27011222_0" index="0" speed="13.89" length="62.48" shape="2338.23,336.09 2327.98,350.26 2315.88,359.66 2302.25,367.33 2288.74,371.08"/>
    </edge>
    <edge id="30194726_27011222_21487169" from="27011222" to="21487169" priority="-1" shape="2288.31,369.54 2273.71,370.73 2262.22,369.29 2245.78,364.15 2235.75,358.44 2227.64,352.25 2217.72,343.14 2212.68,334.77 2208.99,323.81">