<?xml version="1.0" encoding="UTF-8"?>

<routes xmlns:xsi="http://www.w3.org/2001/XMLSchema-instance" xsi:noNamespaceSchemaLocation="http://sumo-sim.org/xsd/routes_file.xsd">

	<route id="1" edges="4067968_28830219_3290027832_2450938914 4067968_28830219_3290027832_60635629 4067968_28830219_3290027832_267925251 4067968_28830219_3290027832_599826230 322230107_3290027832_39933927_3290027832 62710154_39933927_39933921_39933927 405533849_39933921_4077214663_39933921 73017982_4077214663_1313885442_4077214663 73017982_4077214663_1313885442_2026362943 73017982_4077214663_1313885442_2026362940 73017982_4077214663_1313885442_2026362938 73017982_4077214663_1313885442_2364474851 311964536_1313885442_2879911873_1313885442 311964536_1313885442_2879911873_2026362934 311964536_1313885442_2879911873_2364474850 311964536_1313885442_2879911873_2026362930 284243530_2879911873_1313885463_2879911873 284243530_2879911873_1313885463_2026362929 284243530_2879911873_1313885463_2879911872 73017981_1313885463_2879911866_1313885463 73017981_1313885463_2879911866_1313885493 73017981_1313885463_2879911866_2364474847 73017981_1313885463_2879911866_1313885455 73017981_1313885463_2879911866_1313885452 73017981_1313885463_2879911866_2879911870 73017981_1313885463_2879911866_866614218 73017981_1313885463_2879911866_2879911869 73017981_1313885463_2879911866_1313885474 73017981_1313885463_2879911866_2879911868 73017981_1313885463_2879911866_866614127 73017981_1313885463_2879911866_866614379 73017981_1313885463_2879911866_2879911867 73017981_1313885463_2879911866_866614760 73017981_1313885463_2879911866_866613761 73017981_1313885463_2879911866_866614254 284243528_2879911866_866614526_2879911866 116570220_866614526_2879911864_866614526 116570220_866614526_2879911864_2879911865 116570220_866614526_2879911864_1313885383 116570220_866614526_2879911864_2314374830 116570220_866614526_2879911864_2026362918 284243529_2879911864_866613611_2879911864 284243529_2879911864_866613611_2879911863 73017984_866613611_866613693_866613611 73017984_866613611_866613693_1313885521 73017984_866613611_866613693_1313885489 73017984_866613611_866613693_866614362 73017984_866613611_866613693_866614700 106057563_866613693_5841713762_866613693 106057563_866613693_5841713762_866614207 106057563_866613693_5841713762_1313885413 618011454_5841713762_866614474_5841713762 618011454_5841713762_866614474_1313885451 116570250_866614474_866613833_866614474 116570250_866614474_866613833_2026362855 116570250_866614474_866613833_1313885473 116570237_866613833_866613992_866613833 116570237_866613833_866613992_1313885484 116570237_866613833_866613992_2026362842 116570237_866613833_866613992_1313885386 116570237_866613833_866613992_1313885524 116570237_866613833_866613992_866614195 116570237_866613833_866613992_866614570 116570237_866613833_866613992_1313885441 116570237_866613833_866613992_866613497 518427651_866613992_1313885548_866613992 518427651_866613992_1313885548_866614684 385101817_1313885548_5841713763_1313885548 618011455_5841713763_5841713764_5841713763 618011456_5841713764_1313885511_5841713764 618011456_5841713764_1313885511_1313885531 618011456_5841713764_1313885511_2026362847 165881196_1313885511_1313885415_1313885511 165881196_1313885511_1313885415_2026362848 165881196_1313885511_1313885415_1313885515 165881196_1313885511_1313885415_1313885471 165881196_1313885511_1313885415_4625871156 165881196_1313885511_1313885415_1313885435 165881196_1313885511_1313885415_1313885393 165881196_1313885511_1313885415_5894186912 165881196_1313885511_1313885415_5894186911 165881196_1313885511_1313885415_5894186913 165881196_1313885511_1313885415_1313885454 518427643_1313885415_866614320_1313885415 232375390_866614320_866614062_866614320 232375390_866614320_866614062_866614323 248048346_866614062_866613506_866614062 248048344_866613506_866613555_866613506 245434998_866613555_1313885532_866613555 245434998_866613555_1313885532_2389986818 245434998_866613555_1313885532_866613905 245434998_866613555_1313885532_5894186908 116570222_1313885532_2026362814_1313885532 116570222_1313885532_2026362814_1313885431 116570222_1313885532_2026362814_2026362827 116570222_1313885532_2026362814_2026362821 192079314_2026362814_692755381_2026362814 192079314_2026362814_692755381_2510575567 612977930_692755381_5801178942_692755381" />

</routes>
