<configuration>
	<input>
		<net-file value="tiergarten.net.xml" />
		<route-files value="tiergarten.rou.xml" />
	</input>
	<time>
		<begin value="0" />
		<end value="10000" />
	</time>
</configuration>
