<edges>
	<edge id="31962807_26703689_26873453_26703689" from="26703689" to="26873453" numLanes="1" speed="13.89" />
	<edge id="30806884_21487169_21487170_21487169" from="21487169" to="281787658" numLanes="1" speed="13.89" />
	<edge id="30806884_21487169_21487170_281787658" from="281787658" to="27011229" numLanes="1" speed="13.89" />
	<edge id="30806884_21487169_21487170_27011229" from="27011229" to="21487170" numLanes="1" speed="13.89" />
	<edge id="25185001_26785753_26704584_26785753" from="26785753" to="26785752" numLanes="1" speed="13.89" />
	<edge id="25185001_26785753_26704584_26785752" from="26785752" to="21487147" numLanes="1" speed="13.89" />
	<edge id="25185001_26785753_26704584_21487147" from="21487147" to="26704584" numLanes="1" speed="13.89" />
	<edge id="4397063_21487174_26873453_21487174" from="21487174" to="27011842" numLanes="1" speed="13.89" />
	<edge id="4397063_21487174_26873453_27011842" from="27011842" to="27011256" numLanes="1" speed="13.89" />
	<edge id="4397063_21487174_26873453_27011256" from="27011256" to="26873451" numLanes="1" speed="13.89" />
	<edge id="4397063_21487174_26873453_26873451" from="26873451" to="406585016" numLanes="1" speed="13.89" />
	<edge id="4397063_21487174_26873453_406585016" from="406585016" to="414959615" numLanes="1" speed="13.89" />
	<edge id="4397063_21487174_26873453_414959615" from="414959615" to="82654384" numLanes="1" speed="13.89" />
	<edge id="4397063_21487174_26873453_82654384" from="82654384" to="564738832" numLanes="1" speed="13.89" />
	<edge id="4397063_21487174_26873453_564738832" from="564738832" to="249734328" numLanes="1" speed="13.89" />
	<edge id="4397063_21487174_26873453_249734328" from="249734328" to="26873453" numLanes="1" speed="13.89" />
	<edge id="4609241_423839225_408194196_423839225" from="423839225" to="408194196" numLanes="1" speed="13.89" />
	<edge id="4609244_27537750_27537749_27537750" from="27537750" to="27537749" numLanes="1" speed="13.89" />
	<edge id="36337926_415838100_21487145_415838100" from="415838100" to="26938203" numLanes="1" speed="13.89" />
	<edge id="36337926_415838100_21487145_26938203" from="26938203" to="21487145" numLanes="1" speed="13.89" />
	<edge id="4400423_21487142_26875018_21487142" from="21487142" to="26938222" numLanes="1" speed="13.89" />
	<edge id="4400423_21487142_26875018_26938222" from="26938222" to="251150123" numLanes="1" speed="13.89" />
	<edge id="4400423_21487142_26875018_251150123" from="251150123" to="26938223" numLanes="1" speed="13.89" />
	<edge id="4400423_21487142_26875018_26938223" from="26938223" to="276365467" numLanes="1" speed="13.89" />
	<edge id="4400423_21487142_26875018_276365467" from="276365467" to="276365492" numLanes="1" speed="13.89" />
	<edge id="4400423_21487142_26875018_276365492" from="276365492" to="26875018" numLanes="1" speed="13.89" />
	<edge id="4609241_27537747_26704447_27537747" from="27537747" to="26704447" numLanes="1" speed="13.89" />
	<edge id="4381557_26704448_26704447_26704448" from="26704448" to="26704447" numLanes="1" speed="13.89" />
	<edge id="25973438_26870674_26873454_26870674" from="26870674" to="26873454" numLanes="1" speed="13.89" />
	<edge id="25185008_21487143_21487142_21487143" from="21487143" to="26938211" numLanes="1" speed="13.89" />
	<edge id="25185008_21487143_21487142_26938211" from="26938211" to="21487142" numLanes="1" speed="13.89" />
	<edge id="25185006_21487146_21487168_21487146" from="21487146" to="281787666" numLanes="1" speed="13.89" />
	<edge id="25185006_21487146_21487168_281787666" from="281787666" to="281787664" numLanes="1" speed="13.89" />
	<edge id="25185006_21487146_21487168_281787664" from="281787664" to="21487168" numLanes="1" speed="13.89" />
	<edge id="25185005_21487148_21487144_21487148" from="21487148" to="251150120" numLanes="1" speed="13.89" />
	<edge id="25185005_21487148_21487144_251150120" from="251150120" to="26938214" numLanes="1" speed="13.89" />
	<edge id="25185005_21487148_21487144_26938214" from="26938214" to="21487144" numLanes="1" speed="13.89" />
	<edge id="30806886_21487174_21487173_21487174" from="21487174" to="27011806" numLanes="1" speed="13.89" />
	<edge id="30806886_21487174_21487173_27011806" from="27011806" to="281788931" numLanes="1" speed="13.89" />
	<edge id="30806886_21487174_21487173_281788931" from="281788931" to="21487173" numLanes="1" speed="13.89" />
	<edge id="24242895_25661282_25661280_25661282" from="25661282" to="26914395" numLanes="1" speed="13.89" />
	<edge id="24242895_25661282_25661280_26914395" from="26914395" to="25661280" numLanes="1" speed="13.89" />
	<edge id="32935480_21668930_27537748_21668930" from="21668930" to="27537748" numLanes="1" speed="13.89" />
	<edge id="25185002_21487142_26785753_21487142" from="21487142" to="197667550" numLanes="1" speed="13.89" />
	<edge id="25185002_21487142_26785753_197667550" from="197667550" to="26938221" numLanes="1" speed="13.89" />
	<edge id="25185002_21487142_26785753_26938221" from="26938221" to="251106773" numLanes="1" speed="13.89" />
	<edge id="25185002_21487142_26785753_251106773" from="251106773" to="26785753" numLanes="1" speed="13.89" />
	<edge id="25185007_26704584_21487146_26704584" from="26704584" to="26938208" numLanes="1" speed="13.89" />
	<edge id="25185007_26704584_21487146_26938208" from="26938208" to="26938209" numLanes="1" speed="13.89" />
	<edge id="25185007_26704584_21487146_26938209" from="26938209" to="21487146" numLanes="1" speed="13.89" />
	<edge id="30806885_21487170_299080425_21487170" from="21487170" to="27011237" numLanes="1" speed="13.89" />
	<edge id="30806885_21487170_299080425_27011237" from="27011237" to="27423744" numLanes="1" speed="13.89" />
	<edge id="30806885_21487170_299080425_27423744" from="27423744" to="27011241" numLanes="1" speed="13.89" />
	<edge id="30806885_21487170_299080425_27011241" from="27011241" to="299080425" numLanes="1" speed="13.89" />
	<edge id="4413638_21487175_21487174_21487175" from="21487175" to="197687090" numLanes="1" speed="13.89" />
	<edge id="4413638_21487175_21487174_197687090" from="197687090" to="342813080" numLanes="1" speed="13.89" />
	<edge id="4413638_21487175_21487174_342813080" from="342813080" to="27011231" numLanes="1" speed="13.89" />
	<edge id="4413638_21487175_21487174_27011231" from="27011231" to="21487174" numLanes="1" speed="13.89" />
	<edge id="4068038_408194194_423839224_408194194" from="408194194" to="26738489" numLanes="1" speed="13.89" />
	<edge id="4068038_408194194_423839224_26738489" from="26738489" to="313006383" numLanes="1" speed="13.89" />
	<edge id="4068038_408194194_423839224_313006383" from="313006383" to="423839224" numLanes="1" speed="13.89" />
	<edge id="30194726_27011222_21487169_27011222" from="27011222" to="21487172" numLanes="1" speed="13.89" />
	<edge id="30194726_27011222_21487169_21487172" from="21487172" to="27011227" numLanes="1" speed="13.89" />
	<edge id="30194726_27011222_21487169_27011227" from="27011227" to="21487171" numLanes="1" speed="13.89" />
	<edge id="30194726_27011222_21487169_21487171" from="21487171" to="342813077" numLanes="1" speed="13.89" />
	<edge id="30194726_27011222_21487169_342813077" from="342813077" to="595589819" numLanes="1" speed="13.89" />
	<edge id="30194726_27011222_21487169_595589819" from="595589819" to="27011225" numLanes="1" speed="13.89" />
	<edge id="30194726_27011222_21487169_27011225" from="27011225" to="342813075" numLanes="1" speed="13.89" />
	<edge id="30194726_27011222_21487169_342813075" from="342813075" to="21487169" numLanes="1" speed="13.89" />
	<edge id="36337928_26704448_27537750_26704448" from="26704448" to="27537750" numLanes="1" speed="13.89" />
	<edge id="36337929_423839224_423839225_423839224" from="423839224" to="423839225" numLanes="1" speed="13.89" />
	<edge id="36338285_415838100_251150126_415838100" from="415838100" to="251150126" numLanes="1" speed="13.89" />
	<edge id="4381557_26704447_26704448_26704447" from="26704447" to="26704448" numLanes="1" speed="13.89" />
	<edge id="4068038_428788319_408194194_428788319" from="428788319" to="272256206" numLanes="1" speed="13.89" />
	<edge id="4068038_428788319_408194194_272256206" from="272256206" to="408194194" numLanes="1" speed="13.89" />
	<edge id="4609243_252864801_252864802_252864801" from="252864801" to="265786533" numLanes="1" speed="13.89" />
	<edge id="4609243_252864801_252864802_265786533" from="265786533" to="252864802" numLanes="1" speed="13.89" />
	<edge id="31962807_26873453_26703689_26873453" from="26873453" to="26703689" numLanes="1" speed="13.89" />
	<edge id="23352698_252864801_21668930_252864801" from="252864801" to="21668930" numLanes="1" speed="13.89" />
	<edge id="38358261_26873454_25661280_26873454" from="26873454" to="25661280" numLanes="1" speed="13.89" />
	<edge id="32935479_252864802_21487170_252864802" from="252864802" to="341364279" numLanes="1" speed="13.89" />
	<edge id="32935479_252864802_21487170_341364279" from="341364279" to="248919692" numLanes="1" speed="13.89" />
	<edge id="32935479_252864802_21487170_248919692" from="248919692" to="82654385" numLanes="1" speed="13.89" />
	<edge id="32935479_252864802_21487170_82654385" from="82654385" to="27011308" numLanes="1" speed="13.89" />
	<edge id="32935479_252864802_21487170_27011308" from="27011308" to="341364277" numLanes="1" speed="13.89" />
	<edge id="32935479_252864802_21487170_341364277" from="341364277" to="341364270" numLanes="1" speed="13.89" />
	<edge id="32935479_252864802_21487170_341364270" from="341364270" to="27011305" numLanes="1" speed="13.89" />
	<edge id="32935479_252864802_21487170_27011305" from="27011305" to="540312558" numLanes="1" speed="13.89" />
	<edge id="32935479_252864802_21487170_540312558" from="540312558" to="281787656" numLanes="1" speed="13.89" />
	<edge id="32935479_252864802_21487170_281787656" from="281787656" to="281787657" numLanes="1" speed="13.89" />
	<edge id="32935479_252864802_21487170_281787657" from="281787657" to="21487170" numLanes="1" speed="13.89" />
	<edge id="24240250_262454829_26870674_262454829" from="262454829" to="26870674" numLanes="1" speed="13.89" />
	<edge id="4400154_21487169_21677261_21487169" from="21487169" to="281787660" numLanes="1" speed="13.89" />
	<edge id="4400154_21487169_21677261_281787660" from="281787660" to="281787659" numLanes="1" speed="13.89" />
	<edge id="4400154_21487169_21677261_281787659" from="281787659" to="27011219" numLanes="1" speed="13.89" />
	<edge id="4400154_21487169_21677261_27011219" from="27011219" to="282745683" numLanes="1" speed="13.89" />
	<edge id="4400154_21487169_21677261_282745683" from="282745683" to="271749621" numLanes="1" speed="13.89" />
	<edge id="4400154_21487169_21677261_271749621" from="271749621" to="341364267" numLanes="1" speed="13.89" />
	<edge id="4400154_21487169_21677261_341364267" from="341364267" to="27011311" numLanes="1" speed="13.89" />
	<edge id="4400154_21487169_21677261_27011311" from="27011311" to="21677261" numLanes="1" speed="13.89" />
	<edge id="25185003_21487145_21487148_21487145" from="21487145" to="26938215" numLanes="1" speed="13.89" />
	<edge id="25185003_21487145_21487148_26938215" from="26938215" to="21487148" numLanes="1" speed="13.89" />
	<edge id="36337926_408194196_408194192_408194196" from="408194196" to="410846037" numLanes="1" speed="13.89" />
	<edge id="36337926_408194196_408194192_410846037" from="410846037" to="408194217" numLanes="1" speed="13.89" />
	<edge id="36337926_408194196_408194192_408194217" from="408194217" to="408194192" numLanes="1" speed="13.89" />
	<edge id="4609243_27537749_252864801_27537749" from="27537749" to="252864801" numLanes="1" speed="13.89" />
	<edge id="4068038_21487168_251150126_21487168" from="21487168" to="26938204" numLanes="1" speed="13.89" />
	<edge id="4068038_21487168_251150126_26938204" from="26938204" to="251150126" numLanes="1" speed="13.89" />
	<edge id="23352698_21668930_252864801_21668930" from="21668930" to="252864801" numLanes="1" speed="13.89" />
	<edge id="24240250_26703689_21487173_26703689" from="26703689" to="270964315" numLanes="1" speed="13.89" />
	<edge id="24240250_26703689_21487173_270964315" from="270964315" to="270964430" numLanes="1" speed="13.89" />
	<edge id="24240250_26703689_21487173_270964430" from="270964430" to="270964434" numLanes="1" speed="13.89" />
	<edge id="24240250_26703689_21487173_270964434" from="270964434" to="414959598" numLanes="1" speed="13.89" />
	<edge id="24240250_26703689_21487173_414959598" from="414959598" to="270964435" numLanes="1" speed="13.89" />
	<edge id="24240250_26703689_21487173_270964435" from="270964435" to="406584997" numLanes="1" speed="13.89" />
	<edge id="24240250_26703689_21487173_406584997" from="406584997" to="213045012" numLanes="1" speed="13.89" />
	<edge id="24240250_26703689_21487173_213045012" from="213045012" to="270964379" numLanes="1" speed="13.89" />
	<edge id="24240250_26703689_21487173_270964379" from="270964379" to="21487178" numLanes="1" speed="13.89" />
	<edge id="24240250_26703689_21487173_21487178" from="21487178" to="27011259" numLanes="1" speed="13.89" />
	<edge id="24240250_26703689_21487173_27011259" from="27011259" to="21487173" numLanes="1" speed="13.89" />
	<edge id="24240250_26870674_26703689_26870674" from="26870674" to="281167110" numLanes="1" speed="13.89" />
	<edge id="24240250_26870674_26703689_281167110" from="281167110" to="489741699" numLanes="1" speed="13.89" />
	<edge id="24240250_26870674_26703689_489741699" from="489741699" to="26703689" numLanes="1" speed="13.89" />
	<edge id="36337926_408194192_428788320_408194192" from="408194192" to="415838099" numLanes="1" speed="13.89" />
	<edge id="36337926_408194192_428788320_415838099" from="415838099" to="428788320" numLanes="1" speed="13.89" />
	<edge id="36878113_428788319_428788320_428788319" from="428788319" to="428788320" numLanes="1" speed="13.89" />
	<edge id="32935480_21677261_21668930_21677261" from="21677261" to="21668930" numLanes="1" speed="13.89" />
	<edge id="30194724_299080425_21487175_299080425" from="299080425" to="26703663" numLanes="1" speed="13.89" />
	<edge id="30194724_299080425_21487175_26703663" from="26703663" to="299080426" numLanes="1" speed="13.89" />
	<edge id="30194724_299080425_21487175_299080426" from="299080426" to="21487176" numLanes="1" speed="13.89" />
	<edge id="30194724_299080425_21487175_21487176" from="21487176" to="21487175" numLanes="1" speed="13.89" />
	<edge id="4403977_21487144_26704628_21487144" from="21487144" to="26938213" numLanes="1" speed="13.89" />
	<edge id="4403977_21487144_26704628_26938213" from="26938213" to="26704628" numLanes="1" speed="13.89" />
	<edge id="34835386_408194192_408194194_408194192" from="408194192" to="408194194" numLanes="1" speed="13.89" />
	<edge id="4068038_423839224_26704448_423839224" from="423839224" to="26704448" numLanes="1" speed="13.89" />
	<edge id="28764302_26873454_26870695_26873454" from="26873454" to="26870692" numLanes="1" speed="13.89" />
	<edge id="28764302_26873454_26870695_26870692" from="26870692" to="26870695" numLanes="1" speed="13.89" />
	<edge id="36337926_428788320_415838100_428788320" from="428788320" to="411091943" numLanes="1" speed="13.89" />
	<edge id="36337926_428788320_415838100_411091943" from="411091943" to="290001020" numLanes="1" speed="13.89" />
	<edge id="36337926_428788320_415838100_290001020" from="290001020" to="415838100" numLanes="1" speed="13.89" />
	<edge id="4609242_27537748_27537747_27537748" from="27537748" to="27537747" numLanes="1" speed="13.89" />
	<edge id="24242895_25661280_262454829_25661280" from="25661280" to="262454829" numLanes="1" speed="13.89" />
	<edge id="1_26704526_26704482_26704526" from="26704526" to="26704482" numLanes="1" speed="13.89" />
	<edge id="32909782_26704482_26785753_26704482" from="26704482" to="26938219" numLanes="1" speed="13.89" />
	<edge id="32909782_26704482_26785753_26938219" from="26938219" to="26938220" numLanes="1" speed="13.89" />
	<edge id="32909782_26704482_26785753_26938220" from="26938220" to="26785753" numLanes="1" speed="13.89" />
	<edge id="4397063_26873453_26873454_26873453" from="26873453" to="152533555" numLanes="1" speed="13.89" />
	<edge id="4397063_26873453_26873454_152533555" from="152533555" to="417709064" numLanes="1" speed="13.89" />
	<edge id="4397063_26873453_26873454_417709064" from="417709064" to="391498256" numLanes="1" speed="13.89" />
	<edge id="4397063_26873453_26873454_391498256" from="391498256" to="26873454" numLanes="1" speed="13.89" />
	<edge id="25184999_26704628_21487143_26704628" from="26704628" to="251106770" numLanes="1" speed="13.89" />
	<edge id="25184999_26704628_21487143_251106770" from="251106770" to="26938212" numLanes="1" speed="13.89" />
	<edge id="25184999_26704628_21487143_26938212" from="26938212" to="21487143" numLanes="1" speed="13.89" />
	<edge id="23352699_252864802_21677261_252864802" from="252864802" to="21677261" numLanes="1" speed="13.89" />
	<edge id="23352699_21677261_252864802_21677261" from="21677261" to="252864802" numLanes="1" speed="13.89" />
	<edge id="25185004_21487168_21487145_21487168" from="21487168" to="26938217" numLanes="1" speed="13.89" />
	<edge id="25185004_21487168_21487145_26938217" from="26938217" to="21487145" numLanes="1" speed="13.89" />
	<edge id="30194725_21487173_27011222_21487173" from="21487173" to="299080432" numLanes="1" speed="13.89" />
	<edge id="30194725_21487173_27011222_299080432" from="299080432" to="26703090" numLanes="1" speed="13.89" />
	<edge id="30194725_21487173_27011222_26703090" from="26703090" to="26703089" numLanes="1" speed="13.89" />
	<edge id="30194725_21487173_27011222_26703089" from="26703089" to="27011222" numLanes="1" speed="13.89" />
	<edge id="4068038_251150126_428788319_251150126" from="251150126" to="21487167" numLanes="1" speed="13.89" />
	<edge id="4068038_251150126_428788319_21487167" from="21487167" to="272365223" numLanes="1" speed="13.89" />
	<edge id="4068038_251150126_428788319_272365223" from="272365223" to="428788319" numLanes="1" speed="13.89" />
	<edge id="4609241_26704447_423839225_26704447" from="26704447" to="423839225" numLanes="1" speed="13.89" />
</edges>
