<nodes>
	<node id="1074584632" x="372663.72" y="4843362.71" z="0.00" type="priority" />
	<node id="1074584647" x="371994.76" y="4843032.56" z="0.00" type="priority" />
	<node id="1074584672" x="372141.61" y="4842967.20" z="0.00" type="priority" />
	<node id="1074584689" x="371984.68" y="4843025.01" z="0.00" type="priority" />
	<node id="1074584736" x="371986.04" y="4843036.53" z="0.00" type="priority" />
	<node id="1074584775" x="372465.00" y="4843064.12" z="0.00" type="priority" />
	<node id="1074584798" x="372646.04" y="4842842.37" z="0.00" type="priority" />
	<node id="1074584855" x="372190.50" y="4843201.49" z="0.00" type="priority" />
	<node id="1074584878" x="372657.39" y="4842842.82" z="0.00" type="priority" />
	<node id="1074584934" x="372897.26" y="4842786.95" z="0.00" type="priority" />
	<node id="1074585009" x="372904.07" y="4843465.68" z="0.00" type="priority" />
	<node id="1074585030" x="371990.41" y="4843024.08" z="0.00" type="priority" />
	<node id="1074585031" x="372136.20" y="4842969.87" z="0.00" type="priority" />
	<node id="1079045330" x="372970.13" y="4843318.15" z="0.00" type="priority" />
	<node id="1079045346" x="372622.37" y="4843331.12" z="0.00" type="priority" />
	<node id="1079045383" x="372578.58" y="4843307.35" z="0.00" type="priority" />
	<node id="1079045413" x="373035.96" y="4843383.54" z="0.00" type="priority" />
	<node id="1079045416" x="372996.92" y="4843345.36" z="0.00" type="priority" />
	<node id="1079045420" x="372808.57" y="4843333.53" z="0.00" type="priority" />
	<node id="1079045443" x="372616.70" y="4843314.38" z="0.00" type="traffic_light" />
	<node id="1079045455" x="372616.99" y="4843221.39" z="0.00" type="priority" />
	<node id="1079045459" x="372579.42" y="4843361.68" z="0.00" type="priority" />
	<node id="1079750130" x="374185.46" y="4845204.06" z="0.00" type="priority" />
	<node id="1079750132" x="372734.64" y="4844072.13" z="0.00" type="priority" />
	<node id="1079750202" x="373624.23" y="4844507.70" z="0.00" type="priority" />
	<node id="1079750382" x="374171.30" y="4845188.31" z="0.00" type="priority" />
	<node id="1079750403" x="373643.75" y="4844772.73" z="0.00" type="priority" />
	<node id="1079750450" x="372728.50" y="4844076.38" z="0.00" type="priority" />
	<node id="1079750483" x="373733.46" y="4844750.83" z="0.00" type="priority" />
	<node id="1079750504" x="373961.22" y="4845030.67" z="0.00" type="priority" />
	<node id="1079750568" x="372759.98" y="4844076.01" z="0.00" type="priority" />
	<node id="1079750690" x="373622.83" y="4844499.03" z="0.00" type="priority" />
	<node id="1079750725" x="373817.11" y="4844902.48" z="0.00" type="priority" />
	<node id="1079750773" x="373653.88" y="4844795.43" z="0.00" type="priority" />
	<node id="1079750775" x="374180.06" y="4845199.55" z="0.00" type="priority" />
	<node id="1079750802" x="374194.48" y="4845197.29" z="0.00" type="priority" />
	<node id="1079750942" x="373722.68" y="4844754.94" z="0.00" type="priority" />
	<node id="1079750946" x="373726.28" y="4844763.31" z="0.00" type="priority" />
	<node id="1079750985" x="374182.75" y="4845190.64" z="0.00" type="priority" />
	<node id="1079751105" x="373656.92" y="4844799.13" z="0.00" type="priority" />
	<node id="1079751174" x="373736.90" y="4844759.18" z="0.00" type="priority" />
	<node id="1079751176" x="374192.04" y="4845207.97" z="0.00" type="priority" />
	<node id="1079751204" x="373913.36" y="4844994.48" z="0.00" type="priority" />
	<node id="1079751236" x="372955.21" y="4843942.83" z="0.00" type="priority" />
	<node id="1079751325" x="373657.40" y="4844802.90" z="0.00" type="priority" />
	<node id="1079751429" x="373925.33" y="4844981.27" z="0.00" type="priority" />
	<node id="1079751501" x="373635.40" y="4844505.93" z="0.00" type="priority" />
	<node id="1079751542" x="373852.38" y="4844942.65" z="0.00" type="priority" />
	<node id="1079751567" x="373649.66" y="4844809.74" z="0.00" type="priority" />
	<node id="1079751575" x="373642.15" y="4844799.85" z="0.00" type="priority" />
	<node id="1079751658" x="373643.51" y="4844797.18" z="0.00" type="priority" />
	<node id="1088475112" x="372986.75" y="4844467.58" z="0.00" type="priority" />
	<node id="1088475202" x="372823.41" y="4844273.57" z="0.00" type="priority" />
	<node id="1088475231" x="372820.35" y="4844284.12" z="0.00" type="priority" />
	<node id="1088475257" x="372471.02" y="4844420.11" z="0.00" type="priority" />
	<node id="1088475264" x="372958.60" y="4844723.06" z="0.00" type="priority" />
	<node id="1088475362" x="372599.63" y="4844312.37" z="0.00" type="priority" />
	<node id="1088475378" x="372456.67" y="4844410.27" z="0.00" type="priority" />
	<node id="1088475384" x="372446.46" y="4844405.28" z="0.00" type="priority" />
	<node id="1096586801" x="372491.32" y="4843743.03" z="0.00" type="priority" />
	<node id="1096587867" x="372494.89" y="4843753.46" z="0.00" type="priority" />
	<node id="1096590186" x="372502.65" y="4843753.61" z="0.00" type="priority" />
	<node id="1096593805" x="372498.71" y="4843738.03" z="0.00" type="priority" />
	<node id="1110560525" x="372269.00" y="4844391.28" z="0.00" type="priority" />
	<node id="1204288316" x="373737.86" y="4844761.46" z="0.00" type="priority" />
	<node id="1204288376" x="373390.77" y="4844083.96" z="0.00" type="priority" />
	<node id="1204288415" x="372371.30" y="4844055.97" z="0.00" type="priority" />
	<node id="1204288473" x="372915.95" y="4843326.96" z="0.00" type="priority" />
	<node id="1204288486" x="372905.10" y="4844204.86" z="0.00" type="priority" />
	<node id="1204303579" x="372334.88" y="4842929.53" z="0.00" type="priority" />
	<node id="1265685487" x="372702.43" y="4844047.01" z="0.00" type="priority" />
	<node id="1265685594" x="372570.14" y="4844024.74" z="0.00" type="priority" />
	<node id="1342622563" x="372965.81" y="4844710.38" z="0.00" type="priority" />
	<node id="1347113099" x="372611.32" y="4843595.52" z="0.00" type="priority" />
	<node id="1347117271" x="372751.33" y="4843828.48" z="0.00" type="priority" />
	<node id="1347117274" x="372751.32" y="4843812.50" z="0.00" type="priority" />
	<node id="1347117287" x="372654.09" y="4843704.44" z="0.00" type="priority" />
	<node id="1347117298" x="372726.55" y="4843781.24" z="0.00" type="priority" />
	<node id="1347117299" x="372646.12" y="4843695.10" z="0.00" type="priority" />
	<node id="1347117302" x="372615.22" y="4843588.09" z="0.00" type="priority" />
	<node id="1347117303" x="372790.82" y="4843950.01" z="0.00" type="priority" />
	<node id="1347551314" x="372603.98" y="4843586.04" z="0.00" type="priority" />
	<node id="1347551318" x="372612.77" y="4843584.54" z="0.00" type="priority" />
	<node id="1347551322" x="372798.29" y="4843984.38" z="0.00" type="priority" />
	<node id="1347551333" x="372606.60" y="4843595.39" z="0.00" type="priority" />
	<node id="1347551336" x="372608.26" y="4843583.44" z="0.00" type="priority" />
	<node id="1347551338" x="372807.28" y="4844028.04" z="0.00" type="priority" />
	<node id="1347551340" x="372680.25" y="4844099.27" z="0.00" type="priority" />
	<node id="1347551348" x="372639.02" y="4843564.45" z="0.00" type="priority" />
	<node id="1347559084" x="372497.40" y="4843320.79" z="0.00" type="priority" />
	<node id="1347559085" x="372816.39" y="4843286.84" z="0.00" type="priority" />
	<node id="1347559089" x="372492.34" y="4843330.56" z="0.00" type="priority" />
	<node id="1347559092" x="372490.28" y="4843319.84" z="0.00" type="priority" />
	<node id="1347559126" x="372494.98" y="4843319.30" z="0.00" type="priority" />
	<node id="1347559127" x="372869.58" y="4843304.38" z="0.00" type="priority" />
	<node id="1347559137" x="372487.70" y="4843326.62" z="0.00" type="priority" />
	<node id="1347559138" x="372496.45" y="4843329.67" z="0.00" type="priority" />
	<node id="1352205619" x="372349.82" y="4843570.69" z="0.00" type="priority" />
	<node id="1359158844" x="372592.43" y="4843586.43" z="0.00" type="priority" />
	<node id="1382604834" x="372098.13" y="4844231.94" z="0.00" type="priority" />
	<node id="1382604851" x="371906.86" y="4844312.94" z="0.00" type="priority" />
	<node id="1382604874" x="372169.05" y="4844343.46" z="0.00" type="priority" />
	<node id="1382604916" x="372041.52" y="4843384.28" z="0.00" type="priority" />
	<node id="1382604939" x="372169.00" y="4844307.51" z="0.00" type="priority" />
	<node id="1382604959" x="371934.70" y="4843351.93" z="0.00" type="priority" />
	<node id="1382605117" x="372023.88" y="4843493.44" z="0.00" type="priority" />
	<node id="1382605218" x="372123.20" y="4844296.32" z="0.00" type="priority" />
	<node id="1382605441" x="371965.43" y="4844260.17" z="0.00" type="priority" />
	<node id="1382605538" x="371991.04" y="4844254.73" z="0.00" type="priority" />
	<node id="1382605585" x="372258.63" y="4844343.46" z="0.00" type="priority" />
	<node id="1382605588" x="372016.04" y="4843406.62" z="0.00" type="priority" />
	<node id="1382605636" x="372177.03" y="4844355.78" z="0.00" type="priority" />
	<node id="1382605703" x="371878.00" y="4844218.79" z="0.00" type="priority" />
	<node id="1382605709" x="372120.43" y="4844182.50" z="0.00" type="priority" />
	<node id="1382605737" x="372470.40" y="4844799.15" z="0.00" type="priority" />
	<node id="1382605766" x="372139.59" y="4844249.29" z="0.00" type="priority" />
	<node id="1382605796" x="372122.94" y="4844203.53" z="0.00" type="priority" />
	<node id="1382605847" x="372186.77" y="4844341.83" z="0.00" type="priority" />
	<node id="1382605857" x="372460.78" y="4844802.28" z="0.00" type="priority" />
	<node id="1382605890" x="371875.06" y="4844391.95" z="0.00" type="priority" />
	<node id="1382605904" x="372175.75" y="4844341.58" z="0.00" type="priority" />
	<node id="1382605949" x="372108.45" y="4844205.46" z="0.00" type="priority" />
	<node id="1397731778" x="371713.48" y="4842752.65" z="0.00" type="priority" />
	<node id="1417930881" x="373877.54" y="4845169.38" z="0.00" type="priority" />
	<node id="1417930886" x="373786.95" y="4845181.88" z="0.00" type="priority" />
	<node id="1417930896" x="373949.78" y="4845219.71" z="0.00" type="priority" />
	<node id="1570717300" x="372624.84" y="4844099.46" z="0.00" type="priority" />
	<node id="1573123086" x="372947.26" y="4843332.54" z="0.00" type="priority" />
	<node id="1659514813" x="372756.93" y="4844316.30" z="0.00" type="priority" />
	<node id="1659514871" x="372764.63" y="4844310.13" z="0.00" type="priority" />
	<node id="1675201553" x="372209.06" y="4843739.02" z="0.00" type="priority" />
	<node id="1685061923" x="373607.49" y="4844286.80" z="0.00" type="priority" />
	<node id="1685062094" x="373653.50" y="4844563.42" z="0.00" type="priority" />
	<node id="1685146308" x="373393.67" y="4844711.58" z="0.00" type="priority" />
	<node id="1690130866" x="372936.51" y="4843874.84" z="0.00" type="priority" />
	<node id="1690213023" x="372560.33" y="4843169.37" z="0.00" type="priority" />
	<node id="1696644216" x="372383.63" y="4843475.50" z="0.00" type="priority" />
	<node id="1696714161" x="372230.38" y="4843320.92" z="0.00" type="priority" />
	<node id="1699777425" x="372931.21" y="4843961.78" z="0.00" type="priority" />
	<node id="1699777574" x="373358.40" y="4844165.22" z="0.00" type="priority" />
	<node id="1699777779" x="372931.35" y="4844260.56" z="0.00" type="priority" />
	<node id="1699777780" x="373046.50" y="4844259.26" z="0.00" type="priority" />
	<node id="1699777802" x="373004.12" y="4844291.22" z="0.00" type="priority" />
	<node id="1699777828" x="373095.18" y="4844326.56" z="0.00" type="priority" />
	<node id="1699777833" x="373182.87" y="4844316.95" z="0.00" type="priority" />
	<node id="1699978913" x="371808.01" y="4842991.49" z="0.00" type="priority" />
	<node id="1699978918" x="371816.93" y="4843001.53" z="0.00" type="priority" />
	<node id="1699978927" x="371727.34" y="4842828.03" z="0.00" type="priority" />
	<node id="1699978936" x="371820.55" y="4842989.34" z="0.00" type="priority" />
	<node id="1702431957" x="371748.55" y="4842860.60" z="0.00" type="priority" />
	<node id="1702431963" x="371739.68" y="4842868.98" z="0.00" type="priority" />
	<node id="1702431965" x="371759.02" y="4842872.53" z="0.00" type="priority" />
	<node id="1702431972" x="371807.98" y="4842961.53" z="0.00" type="priority" />
	<node id="1702431980" x="373150.97" y="4843169.03" z="0.00" type="priority" />
	<node id="1704201191" x="371759.16" y="4842655.51" z="0.00" type="priority" />
	<node id="1704201254" x="372231.07" y="4842796.50" z="0.00" type="priority" />
	<node id="1704201261" x="372206.01" y="4842822.18" z="0.00" type="priority" />
	<node id="1704201287" x="372189.87" y="4842883.11" z="0.00" type="priority" />
	<node id="1704201318" x="371979.90" y="4843016.86" z="0.00" type="priority" />
	<node id="1704462684" x="372559.95" y="4842722.79" z="0.00" type="priority" />
	<node id="1704462806" x="372609.19" y="4842794.33" z="0.00" type="priority" />
	<node id="1704462994" x="372351.91" y="4843108.27" z="0.00" type="priority" />
	<node id="1712696757" x="372721.90" y="4843355.10" z="0.00" type="priority" />
	<node id="1712696759" x="372694.63" y="4843365.75" z="0.00" type="priority" />
	<node id="1712696818" x="372609.70" y="4843551.53" z="0.00" type="priority" />
	<node id="1712696839" x="372683.07" y="4843676.66" z="0.00" type="priority" />
	<node id="1720683756" x="373331.11" y="4843914.00" z="0.00" type="priority" />
	<node id="1720683797" x="373334.99" y="4843915.20" z="0.00" type="priority" />
	<node id="1720684257" x="373287.71" y="4843963.33" z="0.00" type="priority" />
	<node id="1736930368" x="373493.28" y="4844316.70" z="0.00" type="priority" />
	<node id="1736930370" x="373478.75" y="4844317.98" z="0.00" type="priority" />
	<node id="1737114648" x="373484.26" y="4844318.92" z="0.00" type="priority" />
	<node id="1737366176" x="373177.41" y="4843922.44" z="0.00" type="priority" />
	<node id="1737389117" x="372992.88" y="4843357.39" z="0.00" type="priority" />
	<node id="1737389160" x="372907.22" y="4843707.55" z="0.00" type="priority" />
	<node id="1738360266" x="372905.72" y="4843855.45" z="0.00" type="priority" />
	<node id="1738360276" x="372906.35" y="4843862.20" z="0.00" type="priority" />
	<node id="1738360319" x="372903.99" y="4843873.09" z="0.00" type="priority" />
	<node id="1759785821" x="372459.45" y="4844156.27" z="0.00" type="priority" />
	<node id="1759785835" x="372730.28" y="4844114.18" z="0.00" type="priority" />
	<node id="1759785856" x="373120.71" y="4844305.70" z="0.00" type="priority" />
	<node id="1759785866" x="373478.74" y="4844547.77" z="0.00" type="priority" />
	<node id="1760231594" x="372836.01" y="4844516.67" z="0.00" type="priority" />
	<node id="1760231678" x="373028.66" y="4844642.44" z="0.00" type="priority" />
	<node id="1760231770" x="372890.43" y="4844283.00" z="0.00" type="priority" />
	<node id="1760231773" x="372884.26" y="4844291.38" z="0.00" type="priority" />
	<node id="1761115482" x="372945.81" y="4844162.01" z="0.00" type="priority" />
	<node id="1770577842" x="374142.65" y="4845256.17" z="0.00" type="priority" />
	<node id="1776309882" x="372545.13" y="4843139.67" z="0.00" type="priority" />
	<node id="1778433989" x="372306.40" y="4842757.03" z="0.00" type="priority" />
	<node id="1780610182" x="372183.49" y="4843353.66" z="0.00" type="priority" />
	<node id="1780610244" x="372255.06" y="4843584.12" z="0.00" type="priority" />
	<node id="1782742998" x="371884.94" y="4844973.04" z="0.00" type="priority" />
	<node id="1782743004" x="371964.20" y="4845123.83" z="0.00" type="priority" />
	<node id="1782743005" x="371811.50" y="4845130.53" z="0.00" type="priority" />
	<node id="1782743025" x="372167.47" y="4845247.66" z="0.00" type="priority" />
	<node id="1782743034" x="371629.24" y="4845297.17" z="0.00" type="priority" />
	<node id="1782748239" x="372257.61" y="4843918.73" z="0.00" type="priority" />
	<node id="1782748251" x="372256.88" y="4844010.42" z="0.00" type="priority" />
	<node id="1782795806" x="373566.27" y="4844946.14" z="0.00" type="priority" />
	<node id="1782798738" x="373224.41" y="4844556.90" z="0.00" type="priority" />
	<node id="1782798761" x="373198.00" y="4844580.58" z="0.00" type="priority" />
	<node id="1782798763" x="373205.86" y="4844589.09" z="0.00" type="priority" />
	<node id="1784106882" x="372235.56" y="4843270.76" z="0.00" type="priority" />
	<node id="1784106954" x="372505.41" y="4843458.08" z="0.00" type="priority" />
	<node id="1784106966" x="372470.96" y="4843476.79" z="0.00" type="priority" />
	<node id="1784106980" x="372125.05" y="4843514.44" z="0.00" type="priority" />
	<node id="1784106997" x="372178.51" y="4843552.17" z="0.00" type="priority" />
	<node id="1784107000" x="372160.75" y="4843556.50" z="0.00" type="priority" />
	<node id="1784107012" x="372176.45" y="4843648.60" z="0.00" type="priority" />
	<node id="1784897056" x="372713.83" y="4843722.00" z="0.00" type="priority" />
	<node id="1789813053" x="373457.51" y="4844424.65" z="0.00" type="priority" />
	<node id="1789813056" x="372339.04" y="4844716.23" z="0.00" type="priority" />
	<node id="1789813074" x="372358.85" y="4844814.50" z="0.00" type="priority" />
	<node id="1789813144" x="372174.03" y="4845243.66" z="0.00" type="priority" />
	<node id="1789813355" x="373231.45" y="4845506.37" z="0.00" type="priority" />
	<node id="1790048628" x="373484.07" y="4844859.86" z="0.00" type="priority" />
	<node id="1790048630" x="373491.38" y="4844857.81" z="0.00" type="priority" />
	<node id="1790048638" x="373488.79" y="4844870.13" z="0.00" type="priority" />
	<node id="1799099566" x="372951.04" y="4843369.77" z="0.00" type="priority" />
	<node id="1800775440" x="372739.49" y="4843348.23" z="0.00" type="priority" />
	<node id="1801416018" x="372560.65" y="4843543.54" z="0.00" type="priority" />
	<node id="1835348082" x="372506.59" y="4843749.32" z="0.00" type="priority" />
	<node id="1864130082" x="373680.02" y="4845091.80" z="0.00" type="priority" />
	<node id="1866422978" x="372666.98" y="4843382.68" z="0.00" type="priority" />
	<node id="1866423016" x="372681.32" y="4843374.62" z="0.00" type="priority" />
	<node id="1866510534" x="372522.82" y="4843281.24" z="0.00" type="priority" />
	<node id="1866510554" x="372520.38" y="4843280.40" z="0.00" type="priority" />
	<node id="1866510556" x="372537.67" y="4843289.11" z="0.00" type="priority" />
	<node id="1866510564" x="372519.83" y="4843370.50" z="0.00" type="priority" />
	<node id="1866510571" x="372527.85" y="4843266.54" z="0.00" type="priority" />
	<node id="1866510573" x="372544.38" y="4843284.78" z="0.00" type="priority" />
	<node id="1866510585" x="372526.48" y="4843286.51" z="0.00" type="priority" />
	<node id="1866517414" x="373580.67" y="4844258.07" z="0.00" type="priority" />
	<node id="1866905925" x="372552.96" y="4842822.62" z="0.00" type="priority" />
	<node id="1868008127" x="372442.38" y="4843060.42" z="0.00" type="priority" />
	<node id="1868280239" x="372943.60" y="4843314.73" z="0.00" type="priority" />
	<node id="1868334390" x="372871.21" y="4843219.25" z="0.00" type="priority" />
	<node id="1868334418" x="372873.23" y="4843234.27" z="0.00" type="priority" />
	<node id="1868404463" x="372811.56" y="4843587.52" z="0.00" type="priority" />
	<node id="1868404468" x="372872.01" y="4843587.90" z="0.00" type="priority" />
	<node id="1868404475" x="372812.20" y="4843584.03" z="0.00" type="priority" />
	<node id="1868612286" x="372771.49" y="4844328.98" z="0.00" type="priority" />
	<node id="1868723931" x="373318.66" y="4844372.93" z="0.00" type="priority" />
	<node id="1868723938" x="373316.76" y="4844382.27" z="0.00" type="priority" />
	<node id="1868723946" x="373842.76" y="4845222.98" z="0.00" type="priority" />
	<node id="1868723949" x="373328.72" y="4844381.75" z="0.00" type="priority" />
	<node id="1868723951" x="373562.31" y="4844820.28" z="0.00" type="priority" />
	<node id="1868723952" x="373329.09" y="4844376.25" z="0.00" type="priority" />
	<node id="1868723954" x="373320.19" y="4844385.03" z="0.00" type="priority" />
	<node id="1868736570" x="373780.14" y="4845065.79" z="0.00" type="priority" />
	<node id="1868736596" x="372412.26" y="4843243.61" z="0.00" type="priority" />
	<node id="1868736612" x="372270.32" y="4843142.92" z="0.00" type="priority" />
	<node id="1868736651" x="373776.56" y="4845075.11" z="0.00" type="priority" />
	<node id="1868736697" x="372195.49" y="4843101.62" z="0.00" type="priority" />
	<node id="1868736741" x="373770.53" y="4845062.06" z="0.00" type="priority" />
	<node id="1868736765" x="373766.55" y="4845070.49" z="0.00" type="priority" />
	<node id="1868752067" x="372972.72" y="4844092.38" z="0.00" type="priority" />
	<node id="1868752079" x="373015.27" y="4844047.16" z="0.00" type="priority" />
	<node id="1868752085" x="373013.30" y="4844035.43" z="0.00" type="priority" />
	<node id="1868752095" x="372971.91" y="4844030.20" z="0.00" type="priority" />
	<node id="1868752101" x="372999.24" y="4844103.26" z="0.00" type="priority" />
	<node id="1868754484" x="373143.80" y="4844310.38" z="0.00" type="priority" />
	<node id="1868754496" x="372925.61" y="4844296.52" z="0.00" type="priority" />
	<node id="1868767786" x="372695.39" y="4843892.14" z="0.00" type="priority" />
	<node id="1868767791" x="372685.50" y="4843890.52" z="0.00" type="priority" />
	<node id="1868767795" x="372645.57" y="4843940.49" z="0.00" type="priority" />
	<node id="1868767798" x="373351.48" y="4844962.53" z="0.00" type="priority" />
	<node id="1868767812" x="372683.42" y="4843896.26" z="0.00" type="priority" />
	<node id="1868767816" x="373358.28" y="4844952.06" z="0.00" type="priority" />
	<node id="1868767818" x="373348.02" y="4844948.08" z="0.00" type="priority" />
	<node id="1868767832" x="373345.21" y="4844959.54" z="0.00" type="priority" />
	<node id="1868767862" x="372693.49" y="4843900.55" z="0.00" type="priority" />
	<node id="1869239782" x="372579.25" y="4842912.62" z="0.00" type="priority" />
	<node id="1869239786" x="372586.96" y="4842914.49" z="0.00" type="priority" />
	<node id="1869239792" x="372374.22" y="4842962.76" z="0.00" type="priority" />
	<node id="1869347190" x="372283.89" y="4843155.80" z="0.00" type="priority" />
	<node id="1869347195" x="372331.56" y="4843191.59" z="0.00" type="traffic_light" />
	<node id="1869347198" x="372344.34" y="4843200.32" z="0.00" type="priority" />
	<node id="1869347215" x="372370.00" y="4843209.78" z="0.00" type="priority" />
	<node id="1869347236" x="372413.10" y="4843260.73" z="0.00" type="priority" />
	<node id="1869347242" x="372427.99" y="4843259.74" z="0.00" type="priority" />
	<node id="1869347245" x="372495.53" y="4843268.77" z="0.00" type="priority" />
	<node id="1869953289" x="372126.94" y="4842885.51" z="0.00" type="priority" />
	<node id="1869953303" x="372087.25" y="4842867.94" z="0.00" type="priority" />
	<node id="1869953307" x="372993.84" y="4843919.70" z="0.00" type="priority" />
	<node id="1869953312" x="373072.54" y="4843931.67" z="0.00" type="priority" />
	<node id="1869953323" x="372119.84" y="4842904.23" z="0.00" type="priority" />
	<node id="1869953327" x="372106.11" y="4842879.59" z="0.00" type="priority" />
	<node id="1869953328" x="372983.13" y="4843943.76" z="0.00" type="priority" />
	<node id="1870233740" x="372588.84" y="4843574.00" z="0.00" type="priority" />
	<node id="1870233744" x="372615.27" y="4843668.85" z="0.00" type="priority" />
	<node id="1870233759" x="373059.72" y="4844050.03" z="0.00" type="priority" />
	<node id="1870233761" x="372589.70" y="4843582.28" z="0.00" type="priority" />
	<node id="1870233780" x="372611.52" y="4843646.68" z="0.00" type="priority" />
	<node id="1870233784" x="372610.45" y="4843619.06" z="0.00" type="priority" />
	<node id="1870233788" x="373101.52" y="4844005.56" z="0.00" type="priority" />
	<node id="1870233792" x="372695.25" y="4844033.56" z="0.00" type="priority" />
	<node id="1870233795" x="372705.59" y="4844026.20" z="0.00" type="priority" />
	<node id="1870384824" x="372840.98" y="4843329.49" z="0.00" type="priority" />
	<node id="1870384826" x="372853.88" y="4843328.98" z="0.00" type="priority" />
	<node id="1870384827" x="372873.17" y="4843324.55" z="0.00" type="priority" />
	<node id="1870658475" x="372111.69" y="4842924.86" z="0.00" type="priority" />
	<node id="1870658497" x="372126.67" y="4842956.98" z="0.00" type="priority" />
	<node id="1871618744" x="372542.86" y="4843693.70" z="0.00" type="traffic_light" />
	<node id="1871618752" x="372767.46" y="4843790.96" z="0.00" type="priority" />
	<node id="1872310876" x="372971.44" y="4843937.88" z="0.00" type="priority" />
	<node id="1872357124" x="372557.37" y="4843295.82" z="0.00" type="priority" />
	<node id="1872357142" x="372616.47" y="4843327.43" z="0.00" type="priority" />
	<node id="1878844638" x="372747.65" y="4843823.64" z="0.00" type="priority" />
	<node id="1878844639" x="372749.44" y="4843823.18" z="0.00" type="priority" />
	<node id="1878844644" x="372844.09" y="4843832.37" z="0.00" type="priority" />
	<node id="1918966551" x="372596.53" y="4843392.77" z="0.00" type="priority" />
	<node id="1930502733" x="372371.06" y="4842967.66" z="0.00" type="priority" />
	<node id="2068588799" x="373434.13" y="4844908.65" z="0.00" type="priority" />
	<node id="2068588841" x="373462.65" y="4844928.91" z="0.00" type="priority" />
	<node id="2068588855" x="373480.84" y="4844846.29" z="0.00" type="priority" />
	<node id="2104729494" x="372582.99" y="4842918.80" z="0.00" type="priority" />
	<node id="2104742674" x="372180.39" y="4842843.10" z="0.00" type="priority" />
	<node id="2104788829" x="373179.38" y="4844155.82" z="0.00" type="priority" />
	<node id="2104842206" x="372668.04" y="4843367.36" z="0.00" type="priority" />
	<node id="2109137460" x="371629.57" y="4845089.53" z="0.00" type="priority" />
	<node id="2109137556" x="371910.05" y="4844871.64" z="0.00" type="priority" />
	<node id="2109529537" x="372550.15" y="4843308.23" z="0.00" type="priority" />
	<node id="2109529551" x="372301.04" y="4843159.72" z="0.00" type="priority" />
	<node id="2109571494" x="372343.31" y="4843193.40" z="0.00" type="priority" />
	<node id="2110366382" x="371728.36" y="4844557.21" z="0.00" type="priority" />
	<node id="2110366437" x="371848.90" y="4844594.57" z="0.00" type="priority" />
	<node id="2110366462" x="371737.89" y="4844456.27" z="0.00" type="priority" />
	<node id="2110366489" x="371657.92" y="4844433.48" z="0.00" type="priority" />
	<node id="2110366494" x="371726.07" y="4844547.60" z="0.00" type="priority" />
	<node id="2110366565" x="371930.13" y="4844623.95" z="0.00" type="priority" />
	<node id="2111070553" x="371645.62" y="4844138.83" z="0.00" type="priority" />
	<node id="2111070621" x="371800.86" y="4844016.83" z="0.00" type="priority" />
	<node id="2111071121" x="371804.55" y="4844055.47" z="0.00" type="priority" />
	<node id="2153445075" x="373191.46" y="4843263.37" z="0.00" type="priority" />
	<node id="2189614154" x="373890.32" y="4844953.71" z="0.00" type="priority" />
	<node id="21912089" x="373249.35" y="4844083.07" z="0.00" type="priority" />
	<node id="21912099" x="373185.55" y="4844168.84" z="0.00" type="priority" />
	<node id="21912962" x="373324.50" y="4843966.48" z="0.00" type="priority" />
	<node id="21913117" x="373348.97" y="4844141.06" z="0.00" type="priority" />
	<node id="21913657" x="373273.41" y="4844061.65" z="0.00" type="priority" />
	<node id="21914339" x="372892.33" y="4843850.71" z="0.00" type="priority" />
	<node id="21914340" x="373018.90" y="4843869.60" z="0.00" type="priority" />
	<node id="21914343" x="373411.05" y="4843944.83" z="0.00" type="priority" />
	<node id="21914666" x="373556.53" y="4844232.44" z="0.00" type="priority" />
	<node id="21914809" x="373490.05" y="4844343.18" z="0.00" type="priority" />
	<node id="21914841" x="373397.05" y="4844215.51" z="0.00" type="priority" />
	<node id="21915639" x="373223.56" y="4844250.69" z="0.00" type="traffic_light" />
	<node id="21917445" x="373342.17" y="4844266.21" z="0.00" type="priority" />
	<node id="21917586" x="373082.03" y="4844191.85" z="0.00" type="priority" />
	<node id="21917628" x="372966.18" y="4844141.46" z="0.00" type="priority" />
	<node id="21918402" x="373466.04" y="4844589.84" z="0.00" type="priority" />
	<node id="21918450" x="373524.68" y="4844738.20" z="0.00" type="priority" />
	<node id="21918500" x="373598.51" y="4844852.29" z="0.00" type="priority" />
	<node id="21918825" x="373568.49" y="4844587.93" z="0.00" type="priority" />
	<node id="21918939" x="373619.92" y="4844367.07" z="0.00" type="priority" />
	<node id="21919006" x="373634.07" y="4844497.17" z="0.00" type="priority" />
	<node id="21919090" x="373992.91" y="4845053.66" z="0.00" type="priority" />
	<node id="21919238" x="373716.34" y="4844887.41" z="0.00" type="priority" />
	<node id="21921299" x="373653.96" y="4845047.11" z="0.00" type="priority" />
	<node id="21921870" x="373818.73" y="4845142.84" z="0.00" type="priority" />
	<node id="2225778239" x="372099.84" y="4842892.08" z="0.00" type="priority" />
	<node id="2225778243" x="372106.23" y="4842903.15" z="0.00" type="priority" />
	<node id="2225778261" x="372109.83" y="4842877.82" z="0.00" type="priority" />
	<node id="2225788675" x="372128.21" y="4842863.37" z="0.00" type="priority" />
	<node id="2225788686" x="372203.11" y="4842814.08" z="0.00" type="priority" />
	<node id="2225788730" x="372242.40" y="4842809.31" z="0.00" type="priority" />
	<node id="2225788736" x="372261.21" y="4842812.57" z="0.00" type="priority" />
	<node id="2225788744" x="372247.94" y="4842798.62" z="0.00" type="priority" />
	<node id="2225788749" x="372261.78" y="4842803.98" z="0.00" type="priority" />
	<node id="2225788751" x="372250.19" y="4842817.51" z="0.00" type="priority" />
	<node id="2241375226" x="372954.35" y="4843573.42" z="0.00" type="priority" />
	<node id="2273257178" x="372365.41" y="4842949.87" z="0.00" type="priority" />
	<node id="2341649642" x="372562.07" y="4843916.72" z="0.00" type="priority" />