<configuration>
	<input>
		<net-file value="MonacoV2.net.xml" />
		<route-files value="MonacoV2.rou.xml" />
	</input>
	<time>
		<begin value="0" />
		<end value="846000" />
	</time>
</configuration>
