<?xml version="1.0" encoding="UTF-8"?>

<!-- generated on 02/05/21 21:18:48 by Eclipse SUMO netconvert Version 1.7.0
<configuration xmlns:xsi="http://www.w3.org/2001/XMLSchema-instance" xsi:noNamespaceSchemaLocation="http://sumo.dlr.de/xsd/netconvertConfiguration.xsd">

    <input>
        <node-files value="C:\dev\rep\git\mosaic\mosaic-extended\testscenarios\sumo-steptime-subsecond\application\testScenario2.nod.xml"/>
        <edge-files value="C:\dev\rep\git\mosaic\mosaic-extended\testscenarios\sumo-steptime-subsecond\application\testScenario2.edg.xml"/>
        <connection-files value="C:\dev\rep\git\mosaic\mosaic-extended\testscenarios\sumo-steptime-subsecond\application\testScenario2.con.xml"/>
    </input>

    <output>
        <output-file value="C:\dev\rep\git\mosaic\mosaic-extended\testscenarios\sumo-steptime-subsecond\application\testScenario2.net.xml"/>
    </output>

    <report>
        <aggregate-warnings value="5"/>
    </report>

</configuration>
-->

<net version="1.6" junctionCornerDetail="5" limitTurnSpeed="5.50" xmlns:xsi="http://www.w3.org/2001/XMLSchema-instance" xsi:noNamespaceSchemaLocation="http://sumo.dlr.de/xsd/net_file.xsd">

    <location netOffset="-385281.93,-5816866.57" convBoundary="0.00,0.00,730.48,4464.32" origBoundary="385281.93,5816866.57,386012.41,5821330.89" projParameter="!"/>

    <edge id=":1_0" function="internal">
        <lane id=":1_0_0" index="0" speed="3.65" length="3.05" shape="-1.67,1125.05 -0.89,1123.83 -0.10,1123.41 0.54,1123.71"/>
    </edge>
    <edge id=":1_3" function="internal">
        <lane id=":1_3_0" index="0" speed="3.65" length="1.62" shape="0.54,1123.71 0.71,1123.79 1.53,1124.97"/>
    </edge>
    <edge id=":1_1" function="internal">
        <lane id=":1_1_0" index="0" speed="8.84" length="4.70" shape="5.66,1121.26 5.11,1122.25 4.83,1122.98 4.73,1123.77 4.73,1124.90"/>
        <lane id=":1_1_1" index="1" speed="10.54" length="4.70" shape="5.66,1121.26 1.53,1124.97"/>
    </edge>
    <edge id=":2_0" function="internal">
        <lane id=":2_0_0" index="0" speed="13.89" length="14.40" shape="21.40,2247.18 21.06,2232.78"/>
        <lane id=":2_0_1" index="1" speed="13.89" length="14.40" shape="24.60,2247.11 24.26,2232.71"/>
    </edge>
    <edge id=":2_2" function="internal">
        <lane id=":2_2_0" index="0" speed="8.67" length="5.26" shape="24.60,2247.11 25.26,2243.24 26.08,2242.18"/>
    </edge>
    <edge id=":2_3" function="internal">
        <lane id=":2_3_0" index="0" speed="3.65" length="2.34" shape="24.60,2247.11 25.37,2245.89 26.16,2245.47"/>
    </edge>
    <edge id=":2_11" function="internal">
        <lane id=":2_11_0" index="0" speed="8.67" length="11.59" shape="26.08,2242.18 27.44,2240.44 31.15,2238.70 36.39,2238.03"/>
    </edge>
    <edge id=":2_12" function="internal">
        <lane id=":2_12_0" index="0" speed="3.65" length="2.34" shape="26.16,2245.47 26.97,2245.85 27.80,2247.03"/>
    </edge>
    <edge id=":2_4" function="internal">
        <lane id=":2_4_0" index="0" speed="6.51" length="9.03" shape="36.46,2241.23 34.02,2241.63 32.30,2242.72 31.29,2244.50 31.00,2246.96"/>
    </edge>
    <edge id=":2_5" function="internal">
        <lane id=":2_5_0" index="0" speed="8.67" length="16.85" shape="36.46,2241.23 31.20,2240.80 27.42,2239.24 25.10,2236.54 24.26,2232.71"/>
    </edge>
    <edge id=":2_6" function="internal">
        <lane id=":2_6_0" index="0" speed="3.65" length="4.67" shape="36.46,2241.23 35.25,2240.46 34.83,2239.66 35.21,2238.86 36.39,2238.03"/>
    </edge>
    <edge id=":2_7" function="internal">
        <lane id=":2_7_0" index="0" speed="6.51" length="9.03" shape="30.66,2232.56 31.07,2235.00 32.16,2236.73 33.93,2237.74 36.39,2238.03"/>
    </edge>
    <edge id=":2_8" function="internal">
        <lane id=":2_8_0" index="0" speed="13.89" length="14.40" shape="30.66,2232.56 31.00,2246.96"/>
        <lane id=":2_8_1" index="1" speed="13.89" length="14.40" shape="27.46,2232.63 27.80,2247.03"/>
    </edge>
    <edge id=":2_10" function="internal">
        <lane id=":2_10_0" index="0" speed="3.65" length="2.34" shape="27.46,2232.63 26.69,2233.85 25.90,2234.27"/>
    </edge>
    <edge id=":2_13" function="internal">
        <lane id=":2_13_0" index="0" speed="3.65" length="2.34" shape="25.90,2234.27 25.09,2233.89 24.26,2232.71"/>
    </edge>
    <edge id=":3_0" function="internal">
        <lane id=":3_0_0" index="0" speed="13.89" length="14.40" shape="47.45,3359.62 47.11,3345.22"/>
        <lane id=":3_0_1" index="1" speed="13.89" length="14.40" shape="50.65,3359.55 50.31,3345.15"/>
    </edge>
    <edge id=":3_2" function="internal">
        <lane id=":3_2_0" index="0" speed="8.67" length="5.26" shape="50.65,3359.55 51.31,3355.68 52.13,3354.62"/>
    </edge>
    <edge id=":3_3" function="internal">
        <lane id=":3_3_0" index="0" speed="3.65" length="2.34" shape="50.65,3359.55 51.42,3358.33 52.21,3357.91"/>
    </edge>
    <edge id=":3_11" function="internal">
        <lane id=":3_11_0" index="0" speed="8.67" length="11.59" shape="52.13,3354.62 53.49,3352.88 57.20,3351.14 62.44,3350.47"/>
    </edge>
    <edge id=":3_12" function="internal">
        <lane id=":3_12_0" index="0" speed="3.65" length="2.34" shape="52.21,3357.91 53.02,3358.29 53.85,3359.47"/>
    </edge>
    <edge id=":3_4" function="internal">
        <lane id=":3_4_0" index="0" speed="6.51" length="9.03" shape="62.51,3353.67 60.07,3354.07 58.35,3355.16 57.34,3356.94 57.05,3359.40"/>
    </edge>
    <edge id=":3_5" function="internal">
        <lane id=":3_5_0" index="0" speed="8.67" length="16.85" shape="62.51,3353.67 57.25,3353.24 53.47,3351.68 51.15,3348.98 50.31,3345.15"/>
    </edge>
    <edge id=":3_6" function="internal">
        <lane id=":3_6_0" index="0" speed="3.65" length="4.67" shape="62.51,3353.67 61.30,3352.90 60.88,3352.10 61.26,3351.30 62.44,3350.47"/>
    </edge>
    <edge id=":3_7" function="internal">
        <lane id=":3_7_0" index="0" speed="6.51" length="9.03" shape="56.71,3345.00 57.12,3347.44 58.21,3349.17 59.98,3350.17 62.44,3350.47"/>
    </edge>
    <edge id=":3_8" function="internal">
        <lane id=":3_8_0" index="0" speed="13.89" length="14.40" shape="56.71,3345.00 57.05,3359.40"/>
        <lane id=":3_8_1" index="1" speed="13.89" length="14.40" shape="53.51,3345.07 53.85,3359.47"/>
    </edge>
    <edge id=":3_10" function="internal">
        <lane id=":3_10_0" index="0" speed="3.65" length="2.34" shape="53.51,3345.07 52.74,3346.29 51.95,3346.71"/>
    </edge>
    <edge id=":3_13" function="internal">
        <lane id=":3_13_0" index="0" speed="3.65" length="2.34" shape="51.95,3346.71 51.14,3346.33 50.31,3345.15"/>
    </edge>
    <edge id=":4_0" function="internal">
        <lane id=":4_0_0" index="0" speed="3.65" length="4.67" shape="79.72,4464.28 78.95,4465.50 78.16,4465.92 77.35,4465.54 76.52,4464.36"/>
    </edge>

    <edge id="10_1_2" from="1" to="2" priority="-1">
        <lane id="10_1_2_0" index="0" speed="13.89" length="1107.97" shape="4.73,1124.90 30.66,2232.56"/>
        <lane id="10_1_2_1" index="1" speed="13.89" length="1107.97" shape="1.53,1124.97 27.46,2232.63"/>
    </edge>
    <edge id="10_2_1" from="2" to="1" priority="-1">
        <lane id="10_2_1_0" index="0" speed="13.89" length="1107.97" shape="21.06,2232.78 -4.87,1125.12"/>
        <lane id="10_2_1_1" index="1" speed="13.89" length="1107.97" shape="24.26,2232.71 -1.67,1125.05"/>
    </edge>
    <edge id="10_2_3" from="2" to="3" priority="-1">
        <lane id="10_2_3_0" index="0" speed="13.89" length="1098.34" shape="31.00,2246.96 56.71,3345.00"/>
        <lane id="10_2_3_1" index="1" speed="13.89" length="1098.34" shape="27.80,2247.03 53.51,3345.07"/>
    </edge>
    <edge id="10_3_2" from="3" to="2" priority="-1">
        <lane id="10_3_2_0" index="0" speed="13.89" length="1098.34" shape="47.11,3345.22 21.40,2247.18"/>
        <lane id="10_3_2_1" index="1" speed="13.89" length="1098.34" shape="50.31,3345.15 24.60,2247.11"/>
    </edge>
    <edge id="10_3_4" from="3" to="4" priority="-1">
        <lane id="10_3_4_0" index="0" speed="13.89" length="1105.11" shape="57.05,3359.40 82.92,4464.21"/>
        <lane id="10_3_4_1" index="1" speed="13.89" length="1105.11" shape="53.85,3359.47 79.72,4464.28"/>
    </edge>
    <edge id="10_4_3" from="4" to="3" priority="-1">
        <lane id="10_4_3_0" index="0" speed="13.89" length="1105.11" shape="73.32,4464.43 47.45,3359.62"/>
        <lane id="10_4_3_1" index="1" speed="13.89" length="1105.11" shape="76.52,4464.36 50.65,3359.55"/>
    </edge>
    <edge id="11_2_3" from="2" to="3" priority="-1" shape="26.03,2239.87 704.59,2224.03 730.48,3336.47 52.08,3352.31">
        <lane id="11_2_3_0" index="0" speed="13.89" length="2455.67" shape="36.39,2238.03 706.15,2222.39 732.12,3338.03 62.51,3353.67"/>
    </edge>
    <edge id="11_3_2" from="3" to="2" priority="-1" shape="52.08,3352.31 730.48,3336.47 704.59,2224.03 26.03,2239.87">
        <lane id="11_3_2_0" index="0" speed="13.89" length="2442.87" shape="62.44,3350.47 728.84,3334.91 703.03,2225.67 36.46,2241.23"/>
    </edge>
    <edge id="1_123_1" from="123" to="1" priority="-1">
        <lane id="1_123_1_0" index="0" speed="13.89" length="1294.63" shape="654.22,0.80 5.66,1121.26"/>
    </edge>

    <junction id="1" type="priority" x="0.00" y="1127.85" incLanes="10_2_1_0 10_2_1_1 1_123_1_0" intLanes=":1_3_0 :1_1_0 :1_1_1" shape="-6.46,1125.16 6.33,1124.86 6.34,1123.77 6.41,1123.39 6.53,1123.02 6.74,1122.60 7.05,1122.06 4.28,1120.46">
        <request index="0" response="110" foes="110" cont="1"/>
        <request index="1" response="000" foes="001" cont="0"/>
        <request index="2" response="000" foes="001" cont="0"/>
    </junction>
    <junction id="123" type="dead_end" x="652.84" y="0.00" incLanes="" intLanes="" shape="652.84,0.00 655.61,1.60"/>
    <junction id="2" type="priority" x="26.03" y="2239.87" incLanes="10_3_2_0 10_3_2_1 11_3_2_0 10_1_2_0 10_1_2_1" intLanes=":2_0_0 :2_0_1 :2_11_0 :2_12_0 :2_4_0 :2_5_0 :2_6_0 :2_7_0 :2_8_0 :2_8_1 :2_13_0" shape="19.80,2247.22 32.60,2246.92 32.99,2244.69 33.53,2243.90 34.29,2243.32 35.28,2242.97 36.50,2242.83 36.35,2236.43 34.12,2236.04 33.33,2235.50 32.76,2234.73 32.40,2233.74 32.26,2232.52 19.46,2232.82">
        <request index="0"  response="00000000000" foes="10000100000" cont="0"/>
        <request index="1"  response="00000000000" foes="10000100000" cont="0"/>
        <request index="2"  response="01110000000" foes="01111100000" cont="1"/>
        <request index="3"  response="01100000000" foes="01100000000" cont="1"/>
        <request index="4"  response="01100000000" foes="01100000000" cont="0"/>
        <request index="5"  response="01100000111" foes="11100000111" cont="0"/>
        <request index="6"  response="00010000100" foes="00010000100" cont="0"/>
        <request index="7"  response="00000000000" foes="00001000100" cont="0"/>
        <request index="8"  response="00000000000" foes="00000111100" cont="0"/>
        <request index="9"  response="00000000000" foes="00000111100" cont="0"/>
        <request index="10" response="00000100011" foes="00000100011" cont="1"/>
    </junction>
    <junction id="3" type="priority" x="52.08" y="3352.31" incLanes="10_4_3_0 10_4_3_1 11_2_3_0 10_2_3_0 10_2_3_1" intLanes=":3_0_0 :3_0_1 :3_11_0 :3_12_0 :3_4_0 :3_5_0 :3_6_0 :3_7_0 :3_8_0 :3_8_1 :3_13_0" shape="45.85,3359.66 58.65,3359.36 59.04,3357.13 59.58,3356.34 60.34,3355.76 61.33,3355.41 62.55,3355.27 62.40,3348.87 60.17,3348.48 59.38,3347.94 58.81,3347.17 58.45,3346.18 58.31,3344.96 45.51,3345.26">
        <request index="0"  response="00000000000" foes="10000100000" cont="0"/>
        <request index="1"  response="00000000000" foes="10000100000" cont="0"/>
        <request index="2"  response="01110000000" foes="01111100000" cont="1"/>
        <request index="3"  response="01100000000" foes="01100000000" cont="1"/>
        <request index="4"  response="01100000000" foes="01100000000" cont="0"/>
        <request index="5"  response="01100000111" foes="11100000111" cont="0"/>
        <request index="6"  response="00010000100" foes="00010000100" cont="0"/>
        <request index="7"  response="00000000000" foes="00001000100" cont="0"/>
        <request index="8"  response="00000000000" foes="00000111100" cont="0"/>
        <request index="9"  response="00000000000" foes="00000111100" cont="0"/>
        <request index="10" response="00000100011" foes="00000100011" cont="1"/>
    </junction>
    <junction id="4" type="priority" x="78.12" y="4464.32" incLanes="10_3_4_0 10_3_4_1" intLanes=":4_0_0" shape="78.12,4464.32 84.52,4464.17 78.12,4464.32">
        <request index="0" response="0" foes="0" cont="0"/>
    </junction>

    <junction id=":1_3_0" type="internal" x="0.54" y="1123.71" incLanes=":1_0_0 1_123_1_0" intLanes=":1_1_0 :1_1_1"/>
    <junction id=":2_11_0" type="internal" x="26.08" y="2242.18" incLanes=":2_2_0 10_1_2_0 10_1_2_1" intLanes=":2_5_0 :2_6_0 :2_7_0 :2_8_0 :2_8_1"/>
    <junction id=":2_12_0" type="internal" x="26.16" y="2245.47" incLanes=":2_3_0 10_1_2_0 10_1_2_1 11_3_2_0" intLanes=":2_4_0 :2_8_0 :2_8_1"/>
    <junction id=":2_13_0" type="internal" x="25.90" y="2234.27" incLanes=":2_10_0 10_3_2_0 10_3_2_1 11_3_2_0" intLanes=":2_0_0 :2_0_1 :2_5_0"/>
    <junction id=":3_11_0" type="internal" x="52.13" y="3354.62" incLanes=":3_2_0 10_2_3_0 10_2_3_1" intLanes=":3_5_0 :3_6_0 :3_7_0 :3_8_0 :3_8_1"/>
    <junction id=":3_12_0" type="internal" x="52.21" y="3357.91" incLanes=":3_3_0 10_2_3_0 10_2_3_1 11_2_3_0" intLanes=":3_4_0 :3_8_0 :3_8_1"/>
    <junction id=":3_13_0" type="internal" x="51.95" y="3346.71" incLanes=":3_10_0 10_4_3_0 10_4_3_1 11_2_3_0" intLanes=":3_0_0 :3_0_1 :3_5_0"/>

    <connection from="10_1_2" to="11_2_3" fromLane="0" toLane="0" via=":2_7_0" dir="r" state="M"/>
    <connection from="10_1_2" to="10_2_3" fromLane="0" toLane="0" via=":2_8_0" dir="s" state="M"/>
    <connection from="10_1_2" to="10_2_3" fromLane="1" toLane="1" via=":2_8_1" dir="s" state="M"/>
    <connection from="10_1_2" to="10_2_1" fromLane="1" toLane="1" via=":2_10_0" dir="t" state="m"/>
    <connection from="10_2_1" to="10_1_2" fromLane="1" toLane="1" via=":1_0_0" dir="t" state="m"/>
    <connection from="10_2_3" to="11_3_2" fromLane="0" toLane="0" via=":3_7_0" dir="r" state="M"/>
    <connection from="10_2_3" to="10_3_4" fromLane="0" toLane="0" via=":3_8_0" dir="s" state="M"/>
    <connection from="10_2_3" to="10_3_4" fromLane="1" toLane="1" via=":3_8_1" dir="s" state="M"/>
    <connection from="10_2_3" to="10_3_2" fromLane="1" toLane="1" via=":3_10_0" dir="t" state="m"/>
    <connection from="10_3_2" to="10_2_1" fromLane="0" toLane="0" via=":2_0_0" dir="s" state="M"/>
    <connection from="10_3_2" to="10_2_1" fromLane="1" toLane="1" via=":2_0_1" dir="s" state="M"/>
    <connection from="10_3_2" to="11_2_3" fromLane="1" toLane="0" via=":2_2_0" dir="l" state="m"/>
    <connection from="10_3_2" to="10_2_3" fromLane="1" toLane="1" via=":2_3_0" dir="t" state="m"/>
    <connection from="10_3_4" to="10_4_3" fromLane="1" toLane="1" via=":4_0_0" dir="t" state="M"/>
    <connection from="10_4_3" to="10_3_2" fromLane="0" toLane="0" via=":3_0_0" dir="s" state="M"/>
    <connection from="10_4_3" to="10_3_2" fromLane="1" toLane="1" via=":3_0_1" dir="s" state="M"/>
    <connection from="10_4_3" to="11_3_2" fromLane="1" toLane="0" via=":3_2_0" dir="l" state="m"/>
    <connection from="10_4_3" to="10_3_4" fromLane="1" toLane="1" via=":3_3_0" dir="t" state="m"/>
    <connection from="11_2_3" to="10_3_4" fromLane="0" toLane="0" via=":3_4_0" dir="r" state="m"/>
    <connection from="11_2_3" to="10_3_2" fromLane="0" toLane="1" via=":3_5_0" dir="l" state="m"/>
    <connection from="11_2_3" to="11_3_2" fromLane="0" toLane="0" via=":3_6_0" dir="t" state="m"/>
    <connection from="11_3_2" to="10_2_3" fromLane="0" toLane="0" via=":2_4_0" dir="r" state="m"/>
    <connection from="11_3_2" to="10_2_1" fromLane="0" toLane="1" via=":2_5_0" dir="l" state="m"/>
    <connection from="11_3_2" to="11_2_3" fromLane="0" toLane="0" via=":2_6_0" dir="t" state="m"/>
    <connection from="1_123_1" to="10_1_2" fromLane="0" toLane="0" via=":1_1_0" dir="s" state="M"/>
    <connection from="1_123_1" to="10_1_2" fromLane="0" toLane="1" via=":1_1_1" dir="s" state="M"/>

    <connection from=":1_0" to="10_1_2" fromLane="0" toLane="1" via=":1_3_0" dir="t" state="m"/>
    <connection from=":1_3" to="10_1_2" fromLane="0" toLane="1" dir="t" state="M"/>
    <connection from=":1_1" to="10_1_2" fromLane="0" toLane="0" dir="s" state="M"/>
    <connection from=":1_1" to="10_1_2" fromLane="1" toLane="1" dir="s" state="M"/>
    <connection from=":2_0" to="10_2_1" fromLane="0" toLane="0" dir="s" state="M"/>
    <connection from=":2_0" to="10_2_1" fromLane="1" toLane="1" dir="s" state="M"/>
    <connection from=":2_2" to="11_2_3" fromLane="0" toLane="0" via=":2_11_0" dir="l" state="m"/>
    <connection from=":2_11" to="11_2_3" fromLane="0" toLane="0" dir="l" state="M"/>
    <connection from=":2_3" to="10_2_3" fromLane="0" toLane="1" via=":2_12_0" dir="t" state="m"/>
    <connection from=":2_12" to="10_2_3" fromLane="0" toLane="1" dir="t" state="M"/>
    <connection from=":2_4" to="10_2_3" fromLane="0" toLane="0" dir="r" state="M"/>
    <connection from=":2_5" to="10_2_1" fromLane="0" toLane="1" dir="l" state="M"/>
    <connection from=":2_6" to="11_2_3" fromLane="0" toLane="0" dir="t" state="M"/>
    <connection from=":2_7" to="11_2_3" fromLane="0" toLane="0" dir="r" state="M"/>
    <connection from=":2_8" to="10_2_3" fromLane="0" toLane="0" dir="s" state="M"/>
    <connection from=":2_8" to="10_2_3" fromLane="1" toLane="1" dir="s" state="M"/>
    <connection from=":2_10" to="10_2_1" fromLane="0" toLane="1" via=":2_13_0" dir="t" state="m"/>
    <connection from=":2_13" to="10_2_1" fromLane="0" toLane="1" dir="t" state="M"/>
    <connection from=":3_0" to="10_3_2" fromLane="0" toLane="0" dir="s" state="M"/>
    <connection from=":3_0" to="10_3_2" fromLane="1" toLane="1" dir="s" state="M"/>
    <connection from=":3_2" to="11_3_2" fromLane="0" toLane="0" via=":3_11_0" dir="l" state="m"/>
    <connection from=":3_11" to="11_3_2" fromLane="0" toLane="0" dir="l" state="M"/>
    <connection from=":3_3" to="10_3_4" fromLane="0" toLane="1" via=":3_12_0" dir="t" state="m"/>
    <connection from=":3_12" to="10_3_4" fromLane="0" toLane="1" dir="t" state="M"/>
    <connection from=":3_4" to="10_3_4" fromLane="0" toLane="0" dir="r" state="M"/>
    <connection from=":3_5" to="10_3_2" fromLane="0" toLane="1" dir="l" state="M"/>
    <connection from=":3_6" to="11_3_2" fromLane="0" toLane="0" dir="t" state="M"/>
    <connection from=":3_7" to="11_3_2" fromLane="0" toLane="0" dir="r" state="M"/>
    <connection from=":3_8" to="10_3_4" fromLane="0" toLane="0" dir="s" state="M"/>
    <connection from=":3_8" to="10_3_4" fromLane="1" toLane="1" dir="s" state="M"/>
    <connection from=":3_10" to="10_3_2" fromLane="0" toLane="1" via=":3_13_0" dir="t" state="m"/>
    <connection from=":3_13" to="10_3_2" fromLane="0" toLane="1" dir="t" state="M"/>
    <connection from=":4_0" to="10_4_3" fromLane="0" toLane="1" dir="t" state="M"/>

</net>
