<?xml version="1.0" ?>
<routes>
    <vType id="myCar" color="red" vClass="truck" lcStrategic="0.0"/>
</routes>