<?xml version="1.0" encoding="UTF-8"?>

<!-- generated on 01/26/21 15:45:52 by Eclipse SUMO netedit Version 1.7.0
<configuration xmlns:xsi="http://www.w3.org/2001/XMLSchema-instance" xsi:noNamespaceSchemaLocation="http://sumo.dlr.de/xsd/netconvertConfiguration.xsd">

    <input>
        <sumo-net-file value="net.net.xml"/>
    </input>

    <output>
        <output-file value="D:\tmp\reallab\sievekingplatz.net.xml"/>
    </output>

    <processing>
        <geometry.min-radius.fix.railways value="false"/>
        <geometry.max-grade.fix value="false"/>
        <offset.disable-normalization value="true"/>
        <lefthand value="false"/>
    </processing>

    <junctions>
        <no-turnarounds value="true"/>
        <junctions.corner-detail value="5"/>
        <junctions.limit-turn-speed value="5.5"/>
        <rectangular-lane-cut value="false"/>
    </junctions>

    <pedestrian>
        <walkingareas value="false"/>
    </pedestrian>

    <netedit>
        <route-files value="D:\tmp\reallab\test.rou.xml"/>
    </netedit>

    <report>
        <aggregate-warnings value="5"/>
    </report>

</configuration>
-->

<net version="1.6" junctionCornerDetail="5" limitTurnSpeed="5.50" xmlns:xsi="http://www.w3.org/2001/XMLSchema-instance" xsi:noNamespaceSchemaLocation="http://sumo.dlr.de/xsd/net_file.xsd">

    <location netOffset="-563984.16,-5933566.87" convBoundary="303.30,0.00,851.54,2239.33" origBoundary="9.966036,53.547058,9.989986,53.567179" projParameter="+proj=utm +zone=32 +ellps=WGS84 +datum=WGS84 +units=m +no_defs"/>

    <type id="highway.bridleway" priority="1" numLanes="1" speed="2.78" allow="pedestrian" oneway="1" width="2.00"/>
    <type id="highway.bus_guideway" priority="1" numLanes="1" speed="27.78" allow="bus" oneway="1"/>
    <type id="highway.cycleway" priority="1" numLanes="1" speed="8.33" allow="bicycle" oneway="0" width="1.00"/>
    <type id="highway.footway" priority="1" numLanes="1" speed="2.78" allow="pedestrian" oneway="1" width="2.00"/>
    <type id="highway.ford" priority="1" numLanes="1" speed="2.78" allow="army" oneway="0"/>
    <type id="highway.living_street" priority="2" numLanes="1" speed="2.78" disallow="tram rail_urban rail rail_electric rail_fast ship" oneway="0"/>
    <type id="highway.motorway" priority="14" numLanes="2" speed="39.44" allow="private emergency authority army vip passenger hov taxi bus coach delivery truck trailer motorcycle evehicle custom1 custom2" oneway="1"/>
    <type id="highway.motorway_link" priority="9" numLanes="1" speed="22.22" allow="private emergency authority army vip passenger hov taxi bus coach delivery truck trailer motorcycle evehicle custom1 custom2" oneway="1"/>
    <type id="highway.path" priority="1" numLanes="1" speed="2.78" allow="pedestrian bicycle" oneway="1" width="2.00"/>
    <type id="highway.pedestrian" priority="1" numLanes="1" speed="2.78" allow="pedestrian" oneway="1" width="2.00"/>
    <type id="highway.primary" priority="12" numLanes="2" speed="27.78" disallow="tram rail_urban rail rail_electric rail_fast ship" oneway="0"/>
    <type id="highway.primary_link" priority="7" numLanes="1" speed="22.22" disallow="tram rail_urban rail rail_electric rail_fast ship" oneway="0"/>
    <type id="highway.raceway" priority="15" numLanes="2" speed="83.33" allow="vip" oneway="0"/>
    <type id="highway.residential" priority="3" numLanes="1" speed="13.89" disallow="tram rail_urban rail rail_electric rail_fast ship" oneway="0"/>
    <type id="highway.secondary" priority="11" numLanes="1" speed="27.78" disallow="tram rail_urban rail rail_electric rail_fast ship" oneway="0"/>
    <type id="highway.secondary_link" priority="6" numLanes="1" speed="22.22" disallow="tram rail_urban rail rail_electric rail_fast ship" oneway="0"/>
    <type id="highway.service" priority="1" numLanes="1" speed="5.56" allow="pedestrian delivery bicycle" oneway="0"/>
    <type id="highway.stairs" priority="1" numLanes="1" speed="1.39" allow="pedestrian" oneway="1" width="2.00"/>
    <type id="highway.step" priority="1" numLanes="1" speed="1.39" allow="pedestrian" oneway="1" width="2.00"/>
    <type id="highway.steps" priority="1" numLanes="1" speed="1.39" allow="pedestrian" oneway="1" width="2.00"/>
    <type id="highway.tertiary" priority="10" numLanes="1" speed="22.22" disallow="tram rail_urban rail rail_electric rail_fast ship" oneway="0"/>
    <type id="highway.tertiary_link" priority="5" numLanes="1" speed="22.22" disallow="tram rail_urban rail rail_electric rail_fast ship" oneway="0"/>
    <type id="highway.track" priority="1" numLanes="1" speed="5.56" allow="pedestrian motorcycle moped bicycle" oneway="0"/>
    <type id="highway.trunk" priority="13" numLanes="2" speed="27.78" disallow="pedestrian bicycle tram rail_urban rail rail_electric rail_fast ship" oneway="0"/>
    <type id="highway.trunk_link" priority="8" numLanes="1" speed="22.22" disallow="pedestrian bicycle tram rail_urban rail rail_electric rail_fast ship" oneway="0"/>
    <type id="highway.unclassified" priority="4" numLanes="1" speed="13.89" disallow="tram rail_urban rail rail_electric rail_fast ship" oneway="0"/>
    <type id="highway.unsurfaced" priority="1" numLanes="1" speed="8.33" disallow="tram rail_urban rail rail_electric rail_fast ship" oneway="0"/>
    <type id="railway.highspeed" priority="21" numLanes="1" speed="69.44" allow="rail_fast" oneway="1"/>
    <type id="railway.light_rail" priority="19" numLanes="1" speed="27.78" allow="rail_urban" oneway="1"/>
    <type id="railway.preserved" priority="16" numLanes="1" speed="27.78" allow="rail" oneway="1"/>
    <type id="railway.rail" priority="20" numLanes="1" speed="44.44" allow="rail" oneway="1"/>
    <type id="railway.subway" priority="18" numLanes="1" speed="27.78" allow="rail_urban" oneway="1"/>
    <type id="railway.tram" priority="17" numLanes="1" speed="13.89" allow="tram" oneway="1"/>

    <edge id=":2588659052_0" function="internal">
        <lane id=":2588659052_0_0" index="0" disallow="tram rail_urban rail rail_electric rail_fast ship" speed="13.89" length="8.18" shape="748.94,1139.73 747.79,1141.80 747.34,1143.41 746.91,1145.02 745.80,1147.12"/>
        <lane id=":2588659052_0_1" index="1" disallow="tram rail_urban rail rail_electric rail_fast ship" speed="13.89" length="8.18" shape="746.33,1137.89 745.16,1139.97 744.70,1141.59 744.26,1143.22 743.14,1145.34"/>
        <lane id=":2588659052_0_2" index="2" disallow="tram rail_urban rail rail_electric rail_fast ship" speed="13.89" length="8.18" shape="746.33,1137.89 744.74,1139.70 743.38,1140.70 742.02,1141.71 740.48,1143.56"/>
        <lane id=":2588659052_0_3" index="3" disallow="tram rail_urban rail rail_electric rail_fast ship" speed="13.89" length="8.18" shape="743.72,1136.04 742.12,1137.87 740.74,1138.89 739.38,1139.91 737.82,1141.78"/>
    </edge>
    <edge id=":274305164_0" function="internal">
        <lane id=":274305164_0_0" index="0" allow="bus" speed="13.89" length="0.30" shape="794.43,1096.31 794.04,1096.63"/>
        <lane id=":274305164_0_1" index="1" disallow="tram rail_urban rail rail_electric rail_fast ship" speed="13.89" length="0.30" shape="792.34,1093.89 792.10,1094.08"/>
        <lane id=":274305164_0_2" index="2" disallow="tram rail_urban rail rail_electric rail_fast ship" speed="13.89" length="0.30" shape="790.24,1091.47 790.16,1091.54"/>
    </edge>
    <edge id=":3190836376_0" function="internal">
        <lane id=":3190836376_0_0" index="0" allow="pedestrian delivery bicycle" speed="6.10" length="7.72" shape="842.57,1058.60 840.60,1056.67 838.86,1055.58 837.36,1055.32 836.10,1055.90"/>
    </edge>
    <edge id=":3190836376_1" function="internal">
        <lane id=":3190836376_1_0" index="0" allow="pedestrian delivery bicycle" speed="3.65" length="4.67" shape="842.57,1058.60 842.37,1057.17 842.70,1056.34 843.56,1056.10 844.96,1056.47"/>
    </edge>
    <edge id=":3190836376_2" function="internal">
        <lane id=":3190836376_2_0" index="0" allow="pedestrian delivery bicycle" speed="5.53" length="6.28" shape="844.23,1050.96 843.39,1052.07 843.23,1053.36 843.76,1054.82 844.96,1056.47"/>
    </edge>
    <edge id=":3190836376_3" function="internal">
        <lane id=":3190836376_3_0" index="0" disallow="tram rail_urban rail rail_electric rail_fast ship" speed="13.89" length="9.56" shape="844.23,1050.96 841.95,1052.61 840.16,1053.43 838.38,1054.25 836.10,1055.90"/>
        <lane id=":3190836376_3_1" index="1" disallow="tram rail_urban rail rail_electric rail_fast ship" speed="13.89" length="9.56" shape="842.13,1048.54 839.85,1050.19 838.07,1051.01 836.28,1051.83 834.00,1053.48"/>
    </edge>
    <edge id=":3190836382_0" function="internal">
        <lane id=":3190836382_0_0" index="0" allow="pedestrian delivery bicycle" speed="3.65" length="4.67" shape="848.02,1059.90 848.22,1061.33 847.89,1062.16 847.03,1062.39 845.63,1062.03"/>
    </edge>
    <edge id=":4241706127_0" function="internal">
        <lane id=":4241706127_0_0" index="0" allow="pedestrian delivery bicycle" speed="3.65" length="4.67" shape="808.79,1210.41 809.07,1211.82 808.79,1212.67 807.94,1212.95 806.53,1212.67"/>
    </edge>
    <edge id=":4540876667_0" function="internal">
        <lane id=":4540876667_0_0" index="0" allow="pedestrian delivery bicycle" speed="3.65" length="4.67" shape="809.29,1161.91 810.72,1161.72 811.55,1162.05 811.78,1162.92 811.41,1164.31"/>
    </edge>
    <edge id=":4540876668_0" function="internal">
        <lane id=":4540876668_0_0" index="0" allow="pedestrian delivery bicycle" speed="5.56" length="0.31" shape="804.06,1170.76 803.83,1170.96"/>
    </edge>
    <edge id=":4540876668_1" function="internal">
        <lane id=":4540876668_1_0" index="0" allow="pedestrian delivery bicycle" speed="5.56" length="0.27" shape="801.75,1168.53 801.95,1168.35"/>
    </edge>
    <edge id=":4540876669_0" function="internal">
        <lane id=":4540876669_0_0" index="0" allow="pedestrian delivery bicycle" speed="5.56" length="0.20" shape="791.99,1181.08 791.85,1181.21"/>
    </edge>
    <edge id=":4540876669_1" function="internal">
        <lane id=":4540876669_1_0" index="0" allow="pedestrian delivery bicycle" speed="5.56" length="0.30" shape="789.69,1178.84 789.92,1178.64"/>
    </edge>
    <edge id=":4540876670_0" function="internal">
        <lane id=":4540876670_0_0" index="0" allow="pedestrian delivery bicycle" speed="5.56" length="10.89" shape="787.28,1194.57 784.82,1192.68 782.75,1191.67 780.45,1191.20 777.32,1190.93"/>
    </edge>
    <edge id=":4540876670_1" function="internal">
        <lane id=":4540876670_1_0" index="0" allow="pedestrian delivery bicycle" speed="5.56" length="13.35" shape="787.28,1194.57 784.25,1191.41 782.82,1188.49 782.98,1185.80 784.75,1183.35"/>
    </edge>
    <edge id=":4540876670_2" function="internal">
        <lane id=":4540876670_2_0" index="0" allow="pedestrian delivery bicycle" speed="3.88" length="5.59" shape="787.28,1194.57 785.98,1193.44 785.63,1192.43 786.22,1191.54 787.77,1190.78"/>
    </edge>
    <edge id=":4540876670_3" function="internal">
        <lane id=":4540876670_3_0" index="0" allow="pedestrian delivery bicycle" speed="5.24" length="6.00" shape="786.90,1185.71 786.04,1186.86 785.89,1188.09 786.47,1189.40 787.77,1190.78"/>
    </edge>
    <edge id=":4540876670_4" function="internal">
        <lane id=":4540876670_4_0" index="0" allow="pedestrian delivery bicycle" speed="5.56" length="11.14" shape="786.90,1185.71 784.04,1188.09 781.49,1189.76 779.25,1190.70 777.32,1190.93"/>
    </edge>
    <edge id=":4540876670_5" function="internal">
        <lane id=":4540876670_5_0" index="0" allow="pedestrian delivery bicycle" speed="3.65" length="4.67" shape="786.90,1185.71 785.47,1185.93 784.64,1185.61 784.40,1184.74 784.75,1183.35"/>
    </edge>
    <edge id=":4540876670_6" function="internal">
        <lane id=":4540876670_6_0" index="0" allow="pedestrian delivery bicycle" speed="5.56" length="8.57" shape="777.56,1187.74 778.83,1187.53 780.45,1186.72 782.42,1185.33 784.75,1183.35"/>
    </edge>
    <edge id=":4540876670_7" function="internal">
        <lane id=":4540876670_7_0" index="0" allow="pedestrian delivery bicycle" speed="5.56" length="10.95" shape="777.56,1187.74 780.72,1187.91 783.11,1188.18 785.27,1188.98 787.77,1190.78"/>
    </edge>
    <edge id=":4540876670_8" function="internal">
        <lane id=":4540876670_8_0" index="0" allow="pedestrian delivery bicycle" speed="3.65" length="4.67" shape="777.56,1187.74 778.70,1188.63 779.04,1189.46 778.58,1190.22 777.32,1190.93"/>
    </edge>
    <edge id=":4544505718_0" function="internal">
        <lane id=":4544505718_0_0" index="0" allow="pedestrian delivery bicycle" speed="5.56" length="9.90" shape="766.46,1198.11 764.09,1196.32 761.80,1195.22 759.59,1194.80 757.46,1195.07"/>
    </edge>
    <edge id=":4544505718_1" function="internal">
        <lane id=":4544505718_1_0" index="0" allow="pedestrian delivery bicycle" speed="5.56" length="13.74" shape="766.46,1198.11 763.72,1194.97 763.17,1192.32 764.80,1190.16 768.61,1188.49"/>
    </edge>
    <edge id=":4544505718_2" function="internal">
        <lane id=":4544505718_2_0" index="0" allow="pedestrian delivery bicycle" speed="3.65" length="4.67" shape="766.46,1198.11 766.09,1196.72 766.32,1195.85 767.15,1195.52 768.58,1195.71"/>
    </edge>
    <edge id=":4544505718_3" function="internal">
        <lane id=":4544505718_3_0" index="0" allow="pedestrian delivery bicycle" speed="4.67" length="5.92" shape="769.50,1191.56 767.86,1192.29 767.16,1193.22 767.40,1194.36 768.58,1195.71"/>
    </edge>
    <edge id=":4544505718_4" function="internal">
        <lane id=":4544505718_4_0" index="0" allow="pedestrian delivery bicycle" speed="5.56" length="12.54" shape="769.50,1191.56 757.46,1195.07"/>
    </edge>
    <edge id=":4544505718_5" function="internal">
        <lane id=":4544505718_5_0" index="0" allow="pedestrian delivery bicycle" speed="3.65" length="4.67" shape="769.50,1191.56 768.13,1191.13 767.52,1190.48 767.68,1189.60 768.61,1188.49"/>
    </edge>
    <edge id=":4544505718_6" function="internal">
        <lane id=":4544505718_6_0" index="0" allow="bicycle" speed="9.72" length="12.10" shape="756.85,1187.97 759.94,1189.12 762.64,1189.53 765.39,1189.29 768.61,1188.49"/>
    </edge>
    <edge id=":4544505718_7" function="internal">
        <lane id=":4544505718_7_0" index="0" allow="bicycle" speed="9.72" length="14.11" shape="756.85,1187.97 760.08,1189.58 763.02,1191.37 765.80,1193.39 768.58,1195.71"/>
    </edge>
    <edge id=":4544505718_8" function="internal">
        <lane id=":4544505718_8_0" index="0" allow="bicycle" speed="5.95" length="12.24" shape="756.85,1187.97 760.56,1190.07 761.90,1191.96 760.87,1193.62 757.46,1195.07"/>
    </edge>
    <edge id=":4544505718_9" function="internal">
        <lane id=":4544505718_9_0" index="0" allow="pedestrian delivery bicycle" speed="5.56" length="12.54" shape="756.57,1192.00 768.61,1188.49"/>
    </edge>
    <edge id=":4544505718_10" function="internal">
        <lane id=":4544505718_10_0" index="0" allow="pedestrian delivery bicycle" speed="5.56" length="13.12" shape="756.57,1192.00 759.52,1191.59 762.51,1192.07 765.52,1193.45 768.58,1195.71"/>
    </edge>
    <edge id=":4544505718_11" function="internal">
        <lane id=":4544505718_11_0" index="0" allow="pedestrian delivery bicycle" speed="3.65" length="4.67" shape="756.57,1192.00 757.94,1192.43 758.55,1193.09 758.39,1193.97 757.46,1195.07"/>
    </edge>
    <edge id=":4544505719_0" function="internal">
        <lane id=":4544505719_0_0" index="0" allow="pedestrian delivery bicycle" speed="3.65" length="4.67" shape="781.54,1207.17 781.91,1208.57 781.68,1209.43 780.85,1209.76 779.42,1209.57"/>
    </edge>
    <edge id=":5895930671_0" function="internal">
        <lane id=":5895930671_0_0" index="0" allow="pedestrian delivery bicycle" speed="5.56" length="5.21" shape="731.46,1083.34 728.34,1079.17"/>
    </edge>
    <edge id=":5895930671_1" function="internal">
        <lane id=":5895930671_1_0" index="0" allow="pedestrian delivery bicycle" speed="3.65" length="2.34" shape="731.46,1083.34 731.38,1081.90 731.78,1081.10"/>
    </edge>
    <edge id=":5895930671_4" function="internal">
        <lane id=":5895930671_4_0" index="0" allow="pedestrian delivery bicycle" speed="3.65" length="2.34" shape="731.78,1081.10 732.66,1080.94 734.02,1081.42"/>
    </edge>
    <edge id=":5895930671_2" function="internal">
        <lane id=":5895930671_2_0" index="0" allow="pedestrian delivery bicycle" speed="5.56" length="5.20" shape="730.91,1077.26 734.02,1081.42"/>
    </edge>
    <edge id=":5895930671_3" function="internal">
        <lane id=":5895930671_3_0" index="0" allow="pedestrian delivery bicycle" speed="3.65" length="2.34" shape="730.91,1077.26 730.99,1078.70 730.58,1079.50"/>
    </edge>
    <edge id=":5895930671_5" function="internal">
        <lane id=":5895930671_5_0" index="0" allow="pedestrian delivery bicycle" speed="3.65" length="2.34" shape="730.58,1079.50 729.70,1079.66 728.34,1079.17"/>
    </edge>
    <edge id=":5895930672_0" function="internal">
        <lane id=":5895930672_0_0" index="0" allow="pedestrian delivery bicycle" speed="5.56" length="5.05" shape="738.50,1078.18 735.44,1074.16"/>
    </edge>
    <edge id=":5895930672_1" function="internal">
        <lane id=":5895930672_1_0" index="0" allow="pedestrian delivery bicycle" speed="3.65" length="2.34" shape="738.50,1078.18 738.43,1076.74 738.84,1075.95"/>
    </edge>
    <edge id=":5895930672_4" function="internal">
        <lane id=":5895930672_4_0" index="0" allow="pedestrian delivery bicycle" speed="3.65" length="2.34" shape="738.84,1075.95 739.72,1075.80 741.08,1076.29"/>
    </edge>
    <edge id=":5895930672_2" function="internal">
        <lane id=":5895930672_2_0" index="0" allow="pedestrian delivery bicycle" speed="5.56" length="5.16" shape="737.95,1072.18 741.08,1076.29"/>
    </edge>
    <edge id=":5895930672_3" function="internal">
        <lane id=":5895930672_3_0" index="0" allow="pedestrian delivery bicycle" speed="3.65" length="2.34" shape="737.95,1072.18 738.06,1073.62 737.68,1074.43"/>
    </edge>
    <edge id=":5895930672_5" function="internal">
        <lane id=":5895930672_5_0" index="0" allow="pedestrian delivery bicycle" speed="3.65" length="2.34" shape="737.68,1074.43 736.81,1074.61 735.44,1074.16"/>
    </edge>
    <edge id=":5895930677_0" function="internal">
        <lane id=":5895930677_0_0" index="0" allow="pedestrian delivery bicycle" speed="5.56" length="0.40" shape="714.35,1060.36 714.12,1060.03"/>
    </edge>
    <edge id=":5895930677_1" function="internal">
        <lane id=":5895930677_1_0" index="0" allow="pedestrian delivery bicycle" speed="5.56" length="0.13" shape="716.84,1058.34 716.91,1058.45"/>
    </edge>
    <edge id=":5895930678_0" function="internal">
        <lane id=":5895930678_0_0" index="0" allow="pedestrian delivery bicycle" speed="5.56" length="0.33" shape="746.49,1103.40 746.69,1103.67"/>
    </edge>
    <edge id=":5895930678_1" function="internal">
        <lane id=":5895930678_1_0" index="0" allow="pedestrian delivery bicycle" speed="5.56" length="0.33" shape="749.25,1101.75 749.05,1101.49"/>
    </edge>
    <edge id=":677709073_0" function="internal">
        <lane id=":677709073_0_0" index="0" allow="pedestrian delivery bicycle" speed="5.56" length="9.75" shape="752.48,1111.34 746.61,1103.56"/>
    </edge>
    <edge id=":677709073_1" function="internal">
        <lane id=":677709073_1_0" index="0" allow="pedestrian delivery bicycle" speed="5.56" length="11.18" shape="752.48,1111.34 751.52,1109.38 751.30,1106.95 751.81,1104.04 753.05,1100.67"/>
    </edge>
    <edge id=":677709073_2" function="internal">
        <lane id=":677709073_2_0" index="0" allow="pedestrian delivery bicycle" speed="3.65" length="4.67" shape="752.48,1111.34 752.39,1109.91 752.78,1109.10 753.66,1108.93 755.02,1109.40"/>
    </edge>
    <edge id=":677709073_3" function="internal">
        <lane id=":677709073_3_0" index="0" allow="pedestrian delivery bicycle" speed="5.56" length="7.77" shape="755.97,1101.97 755.00,1104.49 754.51,1106.57 754.52,1108.20 755.02,1109.40"/>
    </edge>
    <edge id=":677709073_4" function="internal">
        <lane id=":677709073_4_0" index="0" allow="pedestrian delivery bicycle" speed="5.56" length="12.85" shape="755.97,1101.97 753.91,1105.38 751.66,1106.79 749.23,1106.18 746.61,1103.56"/>
    </edge>
    <edge id=":677709073_5" function="internal">
        <lane id=":677709073_5_0" index="0" allow="pedestrian delivery bicycle" speed="3.65" length="4.67" shape="755.97,1101.97 754.75,1102.74 753.86,1102.78 753.29,1102.09 753.05,1100.67"/>
    </edge>
    <edge id=":677709073_6" function="internal">
        <lane id=":677709073_6_0" index="0" allow="pedestrian delivery bicycle" speed="4.55" length="5.38" shape="749.17,1101.65 750.22,1102.67 751.22,1102.84 752.16,1102.18 753.05,1100.67"/>
    </edge>
    <edge id=":677709073_7" function="internal">
        <lane id=":677709073_7_0" index="0" allow="pedestrian delivery bicycle" speed="5.56" length="9.71" shape="749.17,1101.65 755.02,1109.40"/>
    </edge>
    <edge id=":677709073_8" function="internal">
        <lane id=":677709073_8_0" index="0" allow="pedestrian delivery bicycle" speed="3.65" length="4.67" shape="749.17,1101.65 749.25,1103.09 748.85,1103.89 747.97,1104.05 746.61,1103.56"/>
    </edge>
    <edge id=":677709119_0" function="internal">
        <lane id=":677709119_0_0" index="0" allow="pedestrian delivery bicycle" speed="5.56" length="10.27" shape="713.94,1059.75 712.73,1057.00 712.87,1054.87 714.37,1053.37 717.24,1052.47"/>
    </edge>
    <edge id=":677709119_1" function="internal">
        <lane id=":677709119_1_0" index="0" allow="pedestrian delivery bicycle" speed="3.65" length="4.67" shape="713.94,1059.75 713.99,1058.30 714.46,1057.54 715.35,1057.46 716.66,1058.06"/>
    </edge>
    <edge id=":677709119_2" function="internal">
        <lane id=":677709119_2_0" index="0" allow="pedestrian delivery bicycle" speed="3.93" length="3.42" shape="717.76,1055.63 716.80,1055.93 716.30,1056.43 716.25,1057.14 716.66,1058.06"/>
    </edge>
    <edge id=":677709119_3" function="internal">
        <lane id=":677709119_3_0" index="0" allow="pedestrian delivery bicycle" speed="3.65" length="4.67" shape="717.76,1055.63 716.45,1055.04 715.92,1054.31 716.19,1053.46 717.24,1052.47"/>
    </edge>
    <edge id=":cluster_21423296_2588659055_2588659056_2588659057_312938383_5911500130_5911500131_5911500132_638728110_638728111_638728112_638728113_0" function="internal">
        <lane id=":cluster_21423296_2588659055_2588659056_2588659057_312938383_5911500130_5911500131_5911500132_638728110_638728111_638728112_638728113_0_0" index="0" disallow="tram rail_urban rail rail_electric rail_fast ship" speed="9.13" length="20.95" shape="725.37,1190.44 720.62,1187.06 716.10,1186.24 711.82,1187.99 707.78,1192.29"/>
    </edge>
    <edge id=":cluster_21423296_2588659055_2588659056_2588659057_312938383_5911500130_5911500131_5911500132_638728110_638728111_638728112_638728113_1" function="internal">
        <lane id=":cluster_21423296_2588659055_2588659056_2588659057_312938383_5911500130_5911500131_5911500132_638728110_638728111_638728112_638728113_1_0" index="0" allow="pedestrian delivery bicycle" speed="9.72" length="37.57" shape="725.37,1190.44 719.38,1183.23 712.94,1173.89 707.07,1165.34 702.80,1160.46"/>
    </edge>
    <edge id=":cluster_21423296_2588659055_2588659056_2588659057_312938383_5911500130_5911500131_5911500132_638728110_638728111_638728112_638728113_2" function="internal">
        <lane id=":cluster_21423296_2588659055_2588659056_2588659057_312938383_5911500130_5911500131_5911500132_638728110_638728111_638728112_638728113_2_0" index="0" disallow="tram rail_urban rail rail_electric rail_fast ship" speed="13.89" length="38.42" shape="725.37,1190.44 719.61,1182.97 713.77,1172.99 708.69,1163.57 705.26,1157.79"/>
    </edge>
    <edge id=":cluster_21423296_2588659055_2588659056_2588659057_312938383_5911500130_5911500131_5911500132_638728110_638728111_638728112_638728113_3" function="internal">
        <lane id=":cluster_21423296_2588659055_2588659056_2588659057_312938383_5911500130_5911500131_5911500132_638728110_638728111_638728112_638728113_3_0" index="0" disallow="tram rail_urban rail rail_electric rail_fast ship" speed="4.84" length="7.64" shape="727.69,1188.22 727.16,1185.24 727.80,1183.47 729.59,1182.92 730.43,1183.10"/>
    </edge>
    <edge id=":cluster_21423296_2588659055_2588659056_2588659057_312938383_5911500130_5911500131_5911500132_638728110_638728111_638728112_638728113_14" function="internal">
        <lane id=":cluster_21423296_2588659055_2588659056_2588659057_312938383_5911500130_5911500131_5911500132_638728110_638728111_638728112_638728113_14_0" index="0" disallow="tram rail_urban rail rail_electric rail_fast ship" speed="4.84" length="2.18" shape="730.43,1183.10 732.55,1183.58"/>
    </edge>
    <edge id=":cluster_21423296_2588659055_2588659056_2588659057_312938383_5911500130_5911500131_5911500132_638728110_638728111_638728112_638728113_4" function="internal">
        <lane id=":cluster_21423296_2588659055_2588659056_2588659057_312938383_5911500130_5911500131_5911500132_638728110_638728111_638728112_638728113_4_0" index="0" disallow="tram rail_urban rail rail_electric rail_fast ship" speed="11.06" length="23.49" shape="735.77,1162.03 731.87,1168.85 730.03,1174.71 730.26,1179.63 732.55,1183.58"/>
    </edge>
    <edge id=":cluster_21423296_2588659055_2588659056_2588659057_312938383_5911500130_5911500131_5911500132_638728110_638728111_638728112_638728113_5" function="internal">
        <lane id=":cluster_21423296_2588659055_2588659056_2588659057_312938383_5911500130_5911500131_5911500132_638728110_638728111_638728112_638728113_5_0" index="0" disallow="tram rail_urban rail rail_electric rail_fast ship" speed="13.89" length="40.86" shape="733.12,1160.24 707.78,1192.29"/>
    </edge>
    <edge id=":cluster_21423296_2588659055_2588659056_2588659057_312938383_5911500130_5911500131_5911500132_638728110_638728111_638728112_638728113_6" function="internal">
        <lane id=":cluster_21423296_2588659055_2588659056_2588659057_312938383_5911500130_5911500131_5911500132_638728110_638728111_638728112_638728113_6_0" index="0" allow="pedestrian delivery bicycle" speed="9.72" length="22.01" shape="730.46,1158.44 725.17,1163.84 718.80,1165.98 711.34,1164.85 711.17,1164.76"/>
    </edge>
    <edge id=":cluster_21423296_2588659055_2588659056_2588659057_312938383_5911500130_5911500131_5911500132_638728110_638728111_638728112_638728113_7" function="internal">
        <lane id=":cluster_21423296_2588659055_2588659056_2588659057_312938383_5911500130_5911500131_5911500132_638728110_638728111_638728112_638728113_7_0" index="0" disallow="tram rail_urban rail rail_electric rail_fast ship" speed="10.00" length="22.43" shape="727.81,1156.65 722.35,1162.72 716.77,1164.93 711.07,1163.29 709.38,1161.69"/>
    </edge>
    <edge id=":cluster_21423296_2588659055_2588659056_2588659057_312938383_5911500130_5911500131_5911500132_638728110_638728111_638728112_638728113_15" function="internal">
        <lane id=":cluster_21423296_2588659055_2588659056_2588659057_312938383_5911500130_5911500131_5911500132_638728110_638728111_638728112_638728113_15_0" index="0" allow="pedestrian delivery bicycle" speed="9.72" length="9.42" shape="711.17,1164.76 702.80,1160.46"/>
    </edge>
    <edge id=":cluster_21423296_2588659055_2588659056_2588659057_312938383_5911500130_5911500131_5911500132_638728110_638728111_638728112_638728113_16" function="internal">
        <lane id=":cluster_21423296_2588659055_2588659056_2588659057_312938383_5911500130_5911500131_5911500132_638728110_638728111_638728112_638728113_16_0" index="0" disallow="tram rail_urban rail rail_electric rail_fast ship" speed="10.00" length="5.68" shape="709.38,1161.69 705.26,1157.79"/>
    </edge>
    <edge id=":cluster_21423296_2588659055_2588659056_2588659057_312938383_5911500130_5911500131_5911500132_638728110_638728111_638728112_638728113_8" function="internal">
        <lane id=":cluster_21423296_2588659055_2588659056_2588659057_312938383_5911500130_5911500131_5911500132_638728110_638728111_638728112_638728113_8_0" index="0" disallow="tram rail_urban rail rail_electric rail_fast ship" speed="13.89" length="37.22" shape="707.85,1155.73 712.54,1161.23 720.07,1169.77 727.67,1178.25 732.55,1183.58"/>
    </edge>
    <edge id=":cluster_21423296_2588659055_2588659056_2588659057_312938383_5911500130_5911500131_5911500132_638728110_638728111_638728112_638728113_9" function="internal">
        <lane id=":cluster_21423296_2588659055_2588659056_2588659057_312938383_5911500130_5911500131_5911500132_638728110_638728111_638728112_638728113_9_0" index="0" disallow="tram rail_urban rail rail_electric rail_fast ship" speed="13.89" length="39.54" shape="707.85,1155.73 712.94,1164.44 714.63,1173.43 712.91,1182.71 707.78,1192.29"/>
    </edge>
    <edge id=":cluster_21423296_2588659055_2588659056_2588659057_312938383_5911500130_5911500131_5911500132_638728110_638728111_638728112_638728113_10" function="internal">
        <lane id=":cluster_21423296_2588659055_2588659056_2588659057_312938383_5911500130_5911500131_5911500132_638728110_638728111_638728112_638728113_10_0" index="0" allow="pedestrian delivery bicycle" speed="9.72" length="34.40" shape="705.16,1190.45 710.12,1181.30 711.38,1173.26 708.94,1166.31 702.80,1160.46"/>
    </edge>
    <edge id=":cluster_21423296_2588659055_2588659056_2588659057_312938383_5911500130_5911500131_5911500132_638728110_638728111_638728112_638728113_11" function="internal">
        <lane id=":cluster_21423296_2588659055_2588659056_2588659057_312938383_5911500130_5911500131_5911500132_638728110_638728111_638728112_638728113_11_0" index="0" disallow="tram rail_urban rail rail_electric rail_fast ship" speed="13.89" length="35.32" shape="705.16,1190.45 709.74,1181.90 711.28,1173.60 709.79,1165.57 705.26,1157.79"/>
    </edge>