<?xml version="1.0" ?>
<!-- Generated by MOSAIC scenario-convert 20.1-SNAPSHOT -->
<routes>
    <route id="1" edges="9827680_41779436_26305479 192548819_26305479_288337201 26317848_288337201_272019371 26317846_272019371_2030999713 192548826_2030999713_3257049721 319292433_3257049721_1288275815 113622295_1288275815_1288275930 113622292_1288275930_272026323 124977386_272026323_1389302723 124977385_1389302723_2031023083 192552848_2031023083_88061064 10367237_88061064_88061055 319252333_88061055_1389302611 319252330_1389302611_88060331 319252330_88060331_1389302611" />
    <route id="2" edges="412997780_4143246482_2030999712 192548822_2030999712_281722117 192548810_281722117_26305479 192548819_26305479_288337201 26317848_288337201_272019371 26317846_272019371_2030999713 192548826_2030999713_3257049721 319292433_3257049721_1288275815 113622295_1288275815_1288275930 113622292_1288275930_272026323 124977386_272026323_1389302723 124977385_1389302723_2031023083 192552848_2031023083_88061064 192552852_88061064_88060341 192552847_88060341_2031023091 192552849_2031023091_26305480" />

    <!-- This route is used only to know which edges to close -->
    <route id="3" edges="319292433_3257049721_1288275815 113622295_1288275815_1288275930 113622292_1288275930_272026323 124977386_272026323_1389302723 124977385_1389302723_2031023083" />
</routes>