<?xml version="1.0" ?>
<!-- Generated by VSimRTI -->
<routes>
    <route id="1" edges="9827680_41779436_26305479_41779436 9827680_41779436_26305479_5821266050 9827680_41779436_26305479_277979994 9827680_41779436_26305479_78519950 9827680_41779436_26305479_78519949 9827680_41779436_26305479_1069962666 9827680_41779436_26305479_5821266054 9827680_41779436_26305479_1069963351 9827680_41779436_26305479_5821266056 9827680_41779436_26305479_277979924 9827680_41779436_26305479_5821266057 9827680_41779436_26305479_1069963398 9827680_41779436_26305479_5821266058 9827680_41779436_26305479_277979923 9827680_41779436_26305479_5821266059 9827680_41779436_26305479_319056342 9827680_41779436_26305479_5821266060 9827680_41779436_26305479_1069962911 9827680_41779436_26305479_3256666340 9827680_41779436_26305479_3256666339 192548819_26305479_288337201_26305479 26317848_288337201_272019371_288337201 26317846_272019371_2030999713_272019371 192548826_2030999713_3257049721_2030999713 192548826_2030999713_3257049721_272019373 319292433_3257049721_1288275815_3257049721 319292433_3257049721_1288275815_1069963315 113622295_1288275815_1288275930_1288275815 113622292_1288275930_272026323_1288275930 113622292_1288275930_272026323_272019376 113622292_1288275930_272026323_1288275769 113622292_1288275930_272026323_1288275856 113622292_1288275930_272026323_272026312 113622292_1288275930_272026323_272026316 113622292_1288275930_272026323_272026318 113622292_1288275930_272026323_30042541 113622292_1288275930_272026323_3256613371 113622292_1288275930_272026323_272026334 124977386_272026323_1389302723_272026323 124977385_1389302723_2031023083_1389302723 192552848_2031023083_88061064_2031023083 10367237_88061064_88061055_88061064 10367237_88061064_88061055_3256613374 10367237_88061064_88061055_3256613375 10367237_88061064_88061055_5822362669 10367237_88061064_88061055_88061062 10367237_88061064_88061055_5822362670 10367237_88061064_88061055_88061060 10367237_88061064_88061055_88061059 10367237_88061064_88061055_88061058 10367237_88061064_88061055_3256613380 10367237_88061064_88061055_3256636160 10367237_88061064_88061055_88061057 10367237_88061064_88061055_3256613381 10367237_88061064_88061055_88061056 319252333_88061055_1389302611_88061055 319252333_88061055_1389302611_88061054 319252333_88061055_1389302611_3256641562 319252330_1389302611_88060331_1389302611 319252330_88060331_1389302611_88060331"/>
    <route id="2" edges="412997780_4143246482_2030999712_30042548 412997780_4143246482_2030999712_272019369 192548822_2030999712_281722117_2030999712 192548822_2030999712_281722117_3256666344 192548810_281722117_26305479_281722117 192548819_26305479_288337201_26305479 26317848_288337201_272019371_288337201 26317846_272019371_2030999713_272019371 192548826_2030999713_3257049721_2030999713 192548826_2030999713_3257049721_272019373 319292433_3257049721_1288275815_3257049721 319292433_3257049721_1288275815_1069963315 113622295_1288275815_1288275930_1288275815 113622292_1288275930_272026323_1288275930 113622292_1288275930_272026323_272019376 113622292_1288275930_272026323_1288275769 113622292_1288275930_272026323_1288275856 113622292_1288275930_272026323_272026312 113622292_1288275930_272026323_272026316 113622292_1288275930_272026323_272026318 113622292_1288275930_272026323_30042541 113622292_1288275930_272026323_3256613371 113622292_1288275930_272026323_272026334 124977386_272026323_1389302723_272026323 124977385_1389302723_2031023083_1389302723 192552848_2031023083_88061064_2031023083 192552852_88061064_88060341_88061064 192552847_88060341_2031023091_88060341 192552849_2031023091_26305480_2031023091"/>

    <!-- This route is used only to know which edges to close -->
    <route id="3" edges="319292433_3257049721_1288275815_1069963315 113622295_1288275815_1288275930_1288275815 113622292_1288275930_272026323_1288275930 113622292_1288275930_272026323_272019376 113622292_1288275930_272026323_1288275769 113622292_1288275930_272026323_1288275856 113622292_1288275930_272026323_272026312 113622292_1288275930_272026323_272026316 113622292_1288275930_272026323_272026318 113622292_1288275930_272026323_30042541 113622292_1288275930_272026323_3256613371 113622292_1288275930_272026323_272026334 124977386_272026323_1389302723_272026323 124977385_1389302723_2031023083_1389302723"/>
</routes>