<edges>
	<edge id="944079968_1869347236_8740887117" from="1869347236" to="8740887117" numLanes="2" shape="372413.10,4843260.73,0.00 372368.50,4843314.20,0.00 372254.98,4843426.43,0.00 372212.98,4843465.48,0.00 372156.42,4843505.87,0.00" speed="13.89" />
	<edge id="423632259_1870384827_4940692941" from="1870384827" to="4940692941" numLanes="2" shape="372873.17,4843324.55,0.00 372881.54,4843323.34,0.00 372889.97,4843322.77,0.00 372896.77,4843322.84,0.00 372903.52,4843323.69,0.00 372912.04,4843325.91,0.00" speed="13.89" />
	<edge id="4227209_96050956_25182815" from="96050956" to="25182815" numLanes="1" shape="373035.73,4843213.49,0.00 373055.92,4843222.45,0.00 373086.92,4843234.05,0.00" speed="5.56" />
	<edge id="334368566_3414826895_3414826896" from="3414826895" to="3414826896" numLanes="2" shape="373063.81,4844353.34,0.00 373011.98,4844312.92,0.00 372994.62,4844299.39,0.00" speed="8.33" />
	<edge id="165636046_1868723931_25240089" from="1868723931" to="25240089" numLanes="1" shape="373318.66,4844372.93,0.00 373315.07,4844366.69,0.00 373310.68,4844360.46,0.00 373291.54,4844342.09,0.00 373270.28,4844324.93,0.00 373261.05,4844315.27,0.00 373256.35,4844309.07,0.00 373248.88,4844299.19,0.00 373245.44,4844293.91,0.00 373242.23,4844288.18,0.00 373238.60,4844280.91,0.00 373233.72,4844271.27,0.00 373232.79,4844269.00,0.00 373229.94,4844263.24,0.00" speed="13.89" />
	<edge id="503783376_4940452736_4940452735" from="4940452736" to="4940452735" numLanes="1" shape="373991.75,4845101.32,0.00 373977.84,4845090.72,0.00 373972.80,4845086.87,0.00 373952.46,4845071.39,0.00" speed="18.06" />
	<edge id="4230117_25185452_25185994" from="25185452" to="25185994" numLanes="1" shape="373645.61,4845018.12,0.00 373642.21,4845010.62,0.00 373639.83,4845001.92,0.00 373636.55,4844980.32,0.00 373617.68,4844949.54,0.00 373613.29,4844946.39,0.00" speed="8.33" />
	<edge id="220547252_2104742674_1704201261" from="2104742674" to="1704201261" numLanes="1" shape="372180.39,4842843.10,0.00 372179.69,4842840.30,0.00 372181.55,4842838.60,0.00 372197.15,4842827.54,0.00 372206.01,4842822.18,0.00" speed="8.33" />
	<edge id="166643408_25195725_6363741444" from="25195725" to="6363741444" numLanes="1" shape="372526.35,4843426.59,0.00 372505.61,4843384.60,0.00 372503.87,4843381.06,0.00 372487.88,4843348.69,0.00 372476.77,4843331.88,0.00 372473.35,4843326.38,0.00" speed="16.67" />
	<edge id="503434383_1696714161_25201047" from="1696714161" to="25201047" numLanes="1" shape="372230.38,4843320.92,0.00 372230.68,4843328.01,0.00" speed="13.89" />
	<edge id="686878369_251721708_821248627" from="251721708" to="821248627" numLanes="1" shape="372513.90,4843893.60,0.00 372525.29,4843899.65,0.00 372535.37,4843902.33,0.00" speed="13.89" />
	<edge id="929856547_29457984_8623016757" from="29457984" to="8623016757" numLanes="1" shape="374058.13,4845146.94,0.00 374070.00,4845153.70,0.00 374097.53,4845168.44,0.00 374112.96,4845176.47,0.00" speed="19.44" />
	<edge id="952419573_1866510573_1866510556" from="1866510573" to="1866510556" numLanes="2" shape="372544.38,4843284.78,0.00 372542.99,4843286.25,0.00 372541.38,4843287.50,0.00 372539.59,4843288.45,0.00 372537.67,4843289.11,0.00" speed="18.06" />
	<edge id="176477342_25239325_21912089" from="25239325" to="21912089" numLanes="2" shape="373224.36,4844044.77,0.00 373228.24,4844047.47,0.00 373229.91,4844050.33,0.00 373246.17,4844078.19,0.00 373249.35,4844083.07,0.00" speed="13.89" />
	<edge id="80378486_1347559127_1866510554" from="1347559127" to="1866510554" numLanes="2" shape="372869.58,4843304.38,0.00 372848.65,4843303.47,0.00 372839.02,4843302.69,0.00 372819.22,4843300.92,0.00 372798.69,4843298.82,0.00 372750.37,4843294.72,0.00 372704.17,4843291.95,0.00 372656.59,4843290.18,0.00 372619.62,4843289.53,0.00 372574.63,4843288.52,0.00 372549.59,4843287.36,0.00 372543.17,4843286.22,0.00 372537.21,4843285.15,0.00 372520.38,4843280.40,0.00" speed="18.06" />
	<edge id="92627414_1074584798_254516782" from="1074584798" to="254516782" numLanes="1" shape="372646.04,4842842.37,0.00 372645.36,4842838.67,0.00 372644.42,4842835.10,0.00 372642.98,4842831.29,0.00 372641.42,4842827.42,0.00 372640.35,4842823.61,0.00 372639.91,4842819.70,0.00" speed="8.33" />
	<edge id="4097656_21912089_21912099" from="21912089" to="21912099" numLanes="1" shape="373249.35,4844083.07,0.00 373242.08,4844088.80,0.00 373237.02,4844093.04,0.00 373232.82,4844098.44,0.00 373230.11,4844102.87,0.00 373228.06,4844107.28,0.00 373226.52,4844114.00,0.00 373226.03,4844119.89,0.00 373226.36,4844125.78,0.00 373228.38,4844130.72,0.00 373230.75,4844136.53,0.00 373231.11,4844140.94,0.00 373229.82,4844144.90,0.00 373227.60,4844147.50,0.00 373223.92,4844149.97,0.00 373185.55,4844168.84,0.00" speed="8.33" />
	<edge id="8352246_1347551348_25195517" from="1347551348" to="25195517" numLanes="2" shape="372639.02,4843564.45,0.00 372638.60,4843560.86,0.00 372639.43,4843549.56,0.00 372648.07,4843497.14,0.00" speed="13.89" />
	<edge id="503753416_4940249420_1868736596" from="4940249420" to="1868736596" numLanes="2" shape="372398.56,4843231.45,0.00 372405.53,4843237.38,0.00 372412.26,4843243.61,0.00" speed="18.06" />
	<edge id="220547251_4937755899_4937755916" from="4937755899" to="4937755916" numLanes="1" shape="372147.71,4842843.69,0.00 372179.64,4842830.33,0.00 372184.19,4842827.34,0.00 372187.42,4842823.49,0.00 372188.49,4842817.28,0.00 372187.56,4842812.37,0.00 372179.16,4842792.52,0.00 372175.10,4842786.92,0.00 372167.09,4842783.90,0.00 372158.79,4842785.17,0.00 372122.00,4842800.24,0.00 372115.85,4842804.33,0.00 372113.44,4842808.12,0.00 372112.63,4842811.86,0.00 372113.92,4842819.58,0.00 372122.28,4842839.18,0.00 372124.82,4842848.67,0.00 372125.36,4842855.58,0.00" speed="13.89" />
	<edge id="503638814_1352289907_21928938" from="1352289907" to="21928938" numLanes="1" shape="374164.43,4845282.59,0.00 374168.07,4845287.47,0.00" speed="18.06" />
	<edge id="92627427_250259426_279443200" from="250259426" to="279443200" numLanes="1" shape="373409.38,4843964.54,0.00 373395.14,4843956.44,0.00 373380.72,4843948.40,0.00 373367.87,4843942.19,0.00 373355.79,4843936.71,0.00" speed="13.89" />
	<edge id="164338238_252458682_3416090602" from="252458682" to="3416090602" numLanes="2" shape="372919.81,4844189.99,0.00 372913.91,4844187.36,0.00 372781.18,4844124.69,0.00 372777.58,4844123.00,0.00 372772.12,4844122.02,0.00 372764.20,4844123.01,0.00 372752.42,4844129.23,0.00" speed="8.33" />
	<edge id="851792663_3419670594_1770577842" from="3419670594" to="1770577842" numLanes="1" shape="373971.11,4845190.97,0.00 373981.77,4845193.25,0.00 373988.63,4845193.37,0.00 374011.40,4845192.78,0.00 374026.16,4845192.50,0.00 374058.87,4845192.03,0.00 374083.33,4845197.41,0.00 374092.77,4845202.26,0.00 374110.01,4845214.52,0.00 374142.65,4845256.17,0.00" speed="18.06" />
	<edge id="177045628_1347559127_1079045455" from="1347559127" to="1079045455" numLanes="2" shape="372869.58,4843304.38,0.00 372835.97,4843297.30,0.00 372721.72,4843274.36,0.00 372661.94,4843249.93,0.00 372616.99,4843221.39,0.00" speed="8.33" />
	<edge id="463430038_4329992817_4329980643" from="4329992817" to="4329980643" numLanes="1" shape="372001.06,4843233.25,0.00 372010.47,4843230.36,0.00 372059.03,4843242.13,0.00" speed="13.89" />
	<edge id="200507331_6482567699_25177730" from="6482567699" to="25177730" numLanes="1" shape="372287.95,4842857.23,0.00 372292.38,4842861.26,0.00 372294.79,4842864.60,0.00 372295.92,4842867.48,0.00 372297.36,4842872.92,0.00" speed="13.89" />
	<edge id="158215184_25177245_1869239786" from="25177245" to="1869239786" numLanes="1" shape="372649.74,4842848.30,0.00 372649.12,4842852.31,0.00 372647.46,4842860.21,0.00 372645.02,4842868.48,0.00 372643.55,4842872.87,0.00 372638.58,4842885.44,0.00 372630.20,4842894.80,0.00 372619.09,4842903.26,0.00 372604.96,4842908.70,0.00 372597.89,4842910.47,0.00 372595.16,4842911.09,0.00 372586.96,4842914.49,0.00" speed="8.33" />
	<edge id="4229893_25192169_25192010" from="25192169" to="25192010" numLanes="1" shape="372947.84,4843352.94,0.00 372950.90,4843356.06,0.00 372954.66,4843358.43,0.00 372958.43,4843360.03,0.00 372964.73,4843361.30,0.00" speed="18.06" />
	<edge id="176577460_937988403_25177478" from="937988403" to="25177478" numLanes="1" shape="372415.80,4843192.48,0.00 372358.81,4843146.20,0.00 372268.16,4843078.79,0.00 372249.53,4843064.55,0.00 372245.04,4843061.13,0.00 372244.77,4843056.00,0.00 372244.67,4843054.22,0.00 372248.44,4843048.61,0.00 372292.97,4842999.47,0.00 372297.51,4842994.38,0.00" speed="13.89" />
	<edge id="792884355_25212849_25212882" from="25212849" to="25212882" numLanes="2" shape="373200.79,4844360.34,0.00 373218.93,4844380.71,0.00 373239.65,4844401.44,0.00 373253.34,4844415.84,0.00 373258.01,4844424.12,0.00 373266.73,4844444.92,0.00 373271.65,4844451.71,0.00" speed="16.67" />
	<edge id="573021665_25181806_252539040" from="25181806" to="252539040" numLanes="1" shape="372942.95,4843088.42,0.00 372941.91,4843102.72,0.00 372944.58,4843149.76,0.00 372944.71,4843154.67,0.00 372945.29,4843183.18,0.00" speed="8.33" />
	<edge id="165636031_25181935_1800775440" from="25181935" to="1800775440" numLanes="1" shape="373316.00,4843311.27,0.00 373320.58,4843314.47,0.00 373324.16,4843318.13,0.00 373328.93,4843325.16,0.00 373334.34,4843334.16,0.00 373340.64,4843344.77,0.00 373341.46,4843347.02,0.00 373342.20,4843349.53,0.00 373342.42,4843355.07,0.00 373340.24,4843362.17,0.00 373335.18,4843367.13,0.00 373327.17,4843370.46,0.00 373317.52,4843367.96,0.00 373309.97,4843366.42,0.00 373255.29,4843355.33,0.00 373125.36,4843326.50,0.00 373026.45,4843307.41,0.00 373016.45,4843305.95,0.00 372997.96,4843303.53,0.00 372977.10,4843301.91,0.00 372960.07,4843301.44,0.00 372932.07,4843301.92,0.00 372902.55,4843304.06,0.00 372876.42,4843307.96,0.00 372816.23,4843321.65,0.00 372751.94,4843343.53,0.00 372739.49,4843348.23,0.00" speed="8.33" />
	<edge id="166399479_25193350_6444966511" from="25193350" to="6444966511" numLanes="2" shape="372860.92,4843700.27,0.00 372860.51,4843712.92,0.00 372860.41,4843716.07,0.00 372860.27,4843720.08,0.00 372860.51,4843726.72,0.00 372860.90,4843737.67,0.00 372861.37,4843743.09,0.00 372862.95,4843761.02,0.00 372863.07,4843762.33,0.00 372865.48,4843777.65,0.00 372865.70,4843779.05,0.00 372868.27,4843790.38,0.00 372869.53,4843795.05,0.00 372871.22,4843801.32,0.00 372874.96,4843812.17,0.00 372877.10,4843817.87,0.00 372880.33,4843825.72,0.00" speed="13.89" />
	<edge id="166009793_1696714161_25201044" from="1696714161" to="25201044" numLanes="1" shape="372230.38,4843320.92,0.00 372230.03,4843304.64,0.00 372232.67,4843292.42,0.00" speed="13.89" />
	<edge id="167625739_25177834_25183872" from="25177834" to="25183872" numLanes="1" shape="372405.08,4843098.23,0.00 372408.11,4843102.25,0.00 372408.70,4843102.81,0.00 372431.31,4843123.30,0.00 372433.90,4843125.66,0.00" speed="8.33" />
	<edge id="176576014_252458682_1204288486" from="252458682" to="1204288486" numLanes="1" shape="372919.81,4844189.99,0.00 372905.10,4844204.86,0.00" speed="8.33" />
	<edge id="503475656_4937755916_4937755917" from="4937755916" to="4937755917" numLanes="1" shape="372125.36,4842855.58,0.00 372124.59,4842859.69,0.00 372123.20,4842863.64,0.00" speed="8.33" />
	<edge id="694608613_4937556547_2104842206" from="4937556547" to="2104842206" numLanes="2" shape="372663.30,4843376.61,0.00 372663.22,4843374.79,0.00 372663.52,4843372.99,0.00 372664.17,4843371.29,0.00 372665.15,4843369.75,0.00 372666.42,4843368.45,0.00 372668.04,4843367.36,0.00" speed="13.89" />
	<edge id="8352246_263075529_25194413" from="263075529" to="25194413" numLanes="2" shape="372650.53,4843588.73,0.00 372647.37,4843583.72,0.00 372644.14,4843578.21,0.00 372640.76,4843571.80,0.00" speed="13.89" />
	<edge id="94399437_252419723_252420413" from="252419723" to="252420413" numLanes="2" shape="372742.51,4843870.17,0.00 372725.73,4843866.83,0.00 372714.28,4843855.77,0.00 372695.34,4843834.56,0.00 372689.69,4843831.36,0.00 372678.54,4843828.51,0.00 372670.68,4843826.60,0.00 372666.69,4843825.54,0.00 372658.67,4843821.04,0.00 372638.60,4843805.88,0.00 372632.38,4843801.30,0.00 372627.31,4843799.37,0.00 372618.18,4843797.25,0.00 372610.15,4843796.44,0.00 372602.16,4843797.55,0.00 372580.57,4843802.14,0.00 372573.23,4843801.18,0.00 372566.75,4843798.41,0.00 372562.78,4843794.89,0.00 372558.93,4843789.81,0.00 372553.40,4843776.45,0.00 372545.11,4843757.44,0.00 372541.38,4843752.33,0.00 372537.78,4843750.55,0.00 372534.03,4843749.50,0.00 372527.88,4843748.73,0.00 372517.40,4843747.74,0.00" speed="8.33" />
	<edge id="39838824_258072016_258071984" from="258072016" to="258071984" numLanes="2" shape="373136.36,4844242.66,0.00 373126.72,4844229.09,0.00 373117.75,4844220.45,0.00" speed="13.89" />
	<edge id="4229328_25198559_25238728" from="25198559" to="25238728" numLanes="1" shape="372690.62,4844016.57,0.00 372695.30,4843997.43,0.00" speed="16.67" />
	<edge id="92627405_252418705_273246003" from="252418705" to="273246003" numLanes="1" shape="373572.63,4844255.45,0.00 373574.96,4844291.53,0.00 373575.88,4844308.83,0.00 373576.10,4844324.26,0.00 373575.56,4844347.22,0.00 373574.16,4844370.15,0.00 373571.91,4844393.01,0.00 373561.75,4844491.99,0.00 373560.98,4844504.08,0.00" speed="19.44" />
	<edge id="4230007_6485591888_21914666" from="6485591888" to="21914666" numLanes="1" shape="373544.62,4844301.38,0.00 373531.06,4844295.75,0.00 373528.71,4844294.47,0.00 373527.10,4844293.21,0.00 373525.83,4844291.74,0.00 373524.37,4844289.62,0.00 373523.29,4844286.91,0.00 373522.58,4844284.19,0.00 373522.14,4844281.91,0.00 373522.12,4844279.06,0.00 373522.87,4844275.85,0.00 373523.84,4844273.35,0.00 373525.04,4844271.19,0.00 373527.36,4844268.09,0.00 373531.43,4844262.34,0.00 373536.95,4844254.86,0.00 373539.10,4844251.95,0.00 373543.08,4844246.87,0.00 373546.65,4844242.85,0.00 373553.61,4844236.57,0.00 373555.64,4844234.16,0.00 373556.53,4844232.44,0.00" speed="13.89" />
	<edge id="39839529_1737389117_1079045413" from="1737389117" to="1079045413" numLanes="1" shape="372992.88,4843357.39,0.00 372998.48,4843358.76,0.00 373001.96,4843359.70,0.00 373032.06,4843367.63,0.00 373034.21,4843368.94,0.00 373035.67,4843370.43,0.00 373036.41,4843371.44,0.00 373037.32,4843374.26,0.00 373037.74,4843376.95,0.00 373036.47,4843381.96,0.00 373035.96,4843383.54,0.00" speed="8.33" />
	<edge id="4229326_25238669_25198656" from="25238669" to="25198656" numLanes="1" shape="372724.97,4843961.04,0.00 372729.00,4843954.29,0.00 372735.05,4843948.05,0.00" speed="13.89" />
	<edge id="24672725_21924057_268167599" from="21924057" to="268167599" numLanes="1" shape="374080.34,4845335.27,0.00 374085.53,4845339.13,0.00 374093.98,4845344.66,0.00 374098.95,4845348.58,0.00 374106.39,4845354.90,0.00 374117.99,4845363.96,0.00 374135.80,4845379.47,0.00 374148.67,4845391.89,0.00 374160.91,4845406.76,0.00 374166.78,4845415.35,0.00 374170.56,4845422.13,0.00 374173.96,4845429.19,0.00 374175.15,4845432.39,0.00 374176.11,4845435.76,0.00 374176.08,4845438.15,0.00 374175.57,4845440.08,0.00 374174.84,4845441.78,0.00 374172.83,4845444.55,0.00 374160.13,4845455.66,0.00 374158.38,4845456.45,0.00 374156.20,4845456.76,0.00 374154.37,4845456.33,0.00 374148.68,4845453.64,0.00 374112.84,4845434.49,0.00 374103.28,4845429.20,0.00 374098.04,4845426.73,0.00 374095.03,4845425.57,0.00 374092.16,4845425.52,0.00 374089.21,4845427.18,0.00 374086.95,4845430.06,0.00 374085.61,4845432.88,0.00 374084.75,4845436.14,0.00 374084.27,4845439.42,0.00 374084.76,4845442.59,0.00 374085.92,4845445.13,0.00 374088.75,4845447.83,0.00 374100.44,4845457.19,0.00 374102.98,4845459.78,0.00 374104.60,4845462.40,0.00 374105.29,4845465.62,0.00 374105.40,4845468.88,0.00 374104.65,4845471.82,0.00 374102.87,4845474.85,0.00 374077.88,4845490.36,0.00 374011.43,4845455.52,0.00 374004.59,4845459.78,0.00 373992.37,4845471.04,0.00 373987.05,4845482.16,0.00 373990.70,4845492.42,0.00 373997.76,4845500.56,0.00" speed="8.33" />
	<edge id="731585432_25177167_6851350853" from="25177167" to="6851350853" numLanes="2" shape="372307.39,4843156.64,0.00 372342.08,4843184.69,0.00 372368.22,4843200.92,0.00 372388.76,4843213.89,0.00" speed="18.06" />
	<edge id="177045626_25199254_25198803" from="25199254" to="25198803" numLanes="1" shape="372578.83,4843898.31,0.00 372586.73,4843901.07,0.00 372589.93,4843903.73,0.00 372595.01,4843909.98,0.00" speed="13.89" />
	<edge id="176333307_21918402_21918450" from="21918402" to="21918450" numLanes="1" shape="373466.04,4844589.84,0.00 373479.33,4844617.36,0.00 373485.05,4844630.01,0.00 373490.38,4844643.03,0.00 373501.23,4844672.83,0.00 373523.02,4844733.22,0.00 373524.68,4844738.20,0.00" speed="13.89" />
	<edge id="503434401_1712696757_25193617" from="1712696757" to="25193617" numLanes="2" shape="372721.90,4843355.10,0.00 372724.25,4843360.93,0.00 372725.29,4843362.55,0.00 372726.80,4843363.80,0.00 372729.21,4843364.64,0.00 372733.42,4843365.08,0.00" speed="8.33" />
	<edge id="952419569_1866510534_6340759098" from="1866510534" to="6340759098" numLanes="2" shape="372522.82,4843281.24,0.00 372522.31,4843279.37,0.00 372522.09,4843277.44,0.00 372522.18,4843275.51,0.00 372522.57,4843273.60,0.00 372523.38,4843271.51,0.00 372524.56,4843269.60,0.00" speed="18.06" />
	<edge id="166009792_21917586_252458631" from="21917586" to="252458631" numLanes="1" shape="373082.03,4844191.85,0.00 373079.06,4844190.05,0.00 373065.77,4844182.03,0.00 373024.09,4844165.72,0.00 373009.85,4844159.81,0.00 373002.07,4844156.43,0.00" speed="13.89" />
	<edge id="176510129_1870233792_1870233795" from="1870233792" to="1870233795" numLanes="2" shape="372695.25,4844033.56,0.00 372694.19,4844026.86,0.00 372694.36,4844024.27,0.00 372696.03,4844021.66,0.00 372698.38,4844020.54,0.00 372700.55,4844020.73,0.00 372703.98,4844022.73,0.00 372705.59,4844026.20,0.00" speed="13.89" />
	<edge id="200499288_267985353_6485591888" from="267985353" to="6485591888" numLanes="2" shape="373559.77,4844344.12,0.00 373558.10,4844337.38,0.00 373556.79,4844327.19,0.00 373556.52,4844322.45,0.00 373555.98,4844318.93,0.00 373555.01,4844314.96,0.00 373552.57,4844310.47,0.00 373549.73,4844307.04,0.00 373544.62,4844301.38,0.00" speed="8.33" />
	<edge id="503783375_21919238_4940452734" from="21919238" to="4940452734" numLanes="1" shape="373716.34,4844887.41,0.00 373723.92,4844893.96,0.00" speed="19.44" />
	<edge id="4230105_1417930881_1868736651" from="1417930881" to="1868736651" numLanes="1" shape="373877.54,4845169.38,0.00 373876.15,4845166.09,0.00 373874.12,4845163.55,0.00 373824.87,4845108.46,0.00 373821.92,4845105.16,0.00 373801.10,4845085.01,0.00 373794.55,4845081.36,0.00 373788.43,4845079.07,0.00 373780.34,4845077.18,0.00 373776.56,4845075.11,0.00" speed="8.33" />
	<edge id="120062663_1347117299_1870233784" from="1347117299" to="1870233784" numLanes="2" shape="372646.12,4843695.10,0.00 372629.90,4843670.97,0.00 372615.96,4843645.66,0.00 372611.54,4843625.67,0.00 372610.45,4843619.06,0.00" speed="18.06" />
	<edge id="166558481_25191904_25192169" from="25191904" to="25192169" numLanes="2" shape="372921.30,4843328.48,0.00 372935.84,4843336.74,0.00 372938.89,4843339.91,0.00 372943.09,4843344.29,0.00 372947.84,4843352.94,0.00" speed="13.89" />
	<edge id="159170458_25195773_25195725" from="25195773" to="25195725" numLanes="1" shape="372534.72,4843576.81,0.00 372535.23,4843569.66,0.00 372535.75,4843562.53,0.00 372551.76,4843520.38,0.00 372555.06,4843509.21,0.00 372555.72,4843500.00,0.00 372554.36,4843488.41,0.00 372548.46,4843474.61,0.00 372547.77,4843473.01,0.00 372529.77,4843434.22,0.00 372526.35,4843426.59,0.00" speed="16.67" />
	<edge id="507581429_4970587864_4970587861" from="4970587864" to="4970587861" numLanes="3" shape="373209.06,4844355.02,0.00 373203.33,4844346.65,0.00" speed="13.89" />
	<edge id="166399501_1736930370_1737114648" from="1736930370" to="1737114648" numLanes="1" shape="373478.75,4844317.98,0.00 373480.74,4844318.67,0.00 373484.26,4844318.92,0.00" speed="13.89" />
	<edge id="315524778_21913657_21912089" from="21913657" to="21912089" numLanes="1" shape="373273.41,4844061.65,0.00 373268.53,4844065.77,0.00 373249.35,4844083.07,0.00" speed="8.33" />
	<edge id="166624050_1720684257_1737366176" from="1720684257" to="1737366176" numLanes="1" shape="373287.71,4843963.33,0.00 373285.65,4843962.67,0.00 373268.73,4843958.70,0.00 373252.24,4843954.83,0.00 373244.25,4843952.48,0.00 373239.63,4843950.87,0.00 373237.86,4843950.32,0.00 373229.58,4843946.80,0.00 373222.35,4843943.41,0.00 373215.21,4843940.07,0.00 373198.75,4843932.33,0.00 373177.41,4843922.44,0.00" speed="13.89" />
	<edge id="93137576_1079751501_1079750202" from="1079751501" to="1079750202" numLanes="1" shape="373635.40,4844505.93,0.00 373624.23,4844507.70,0.00" speed="18.06" />
	<edge id="503462466_1079751204_1079751542" from="1079751204" to="1079751542" numLanes="2" shape="373913.36,4844994.48,0.00 373893.27,4844979.25,0.00 373865.50,4844957.62,0.00 373852.38,4844942.65,0.00" speed="13.89" />
	<edge id="788197746_25198472_1265685487" from="25198472" to="1265685487" numLanes="2" shape="372707.25,4844056.49,0.00 372705.20,4844052.94,0.00 372702.43,4844047.01,0.00" speed="13.89" />
	<edge id="120113158_1347551318_1347551348" from="1347551318" to="1347551348" numLanes="2" shape="372612.77,4843584.54,0.00 372632.60,4843570.52,0.00 372635.52,4843568.05,0.00 372639.02,4843564.45,0.00" speed="18.06" />
	<edge id="92627406_25177282_25177341" from="25177282" to="25177341" numLanes="1" shape="372706.67,4842836.84,0.00 372710.85,4842836.22,0.00 372723.33,4842833.04,0.00 372726.86,4842830.41,0.00 372729.60,4842825.80,0.00 372737.63,4842814.23,0.00 372739.11,4842802.05,0.00 372740.78,4842770.29,0.00 372743.57,4842762.59,0.00 372747.64,4842753.90,0.00 372756.68,4842745.51,0.00 372769.90,4842737.57,0.00 372772.78,4842735.46,0.00" speed="8.33" />
	<edge id="434567309_272637923_21914841" from="272637923" to="21914841" numLanes="1" shape="373379.12,4844191.52,0.00 373383.92,4844197.95,0.00 373388.16,4844203.61,0.00 373392.17,4844208.98,0.00 373397.05,4844215.51,0.00" speed="13.89" />
	<edge id="181479771_1352205619_251721708" from="1352205619" to="251721708" numLanes="1" shape="372349.82,4843570.69,0.00 372357.49,4843582.49,0.00 372359.98,4843587.21,0.00 372364.53,4843595.95,0.00 372383.70,4843632.10,0.00 372391.21,4843645.59,0.00 372396.21,4843654.61,0.00 372397.98,4843657.79,0.00 372402.24,4843665.23,0.00 372415.95,4843685.35,0.00 372424.11,4843693.57,0.00 372434.10,4843703.63,0.00 372441.75,4843711.64,0.00 372450.02,4843719.66,0.00 372456.15,4843726.94,0.00 372459.97,4843732.22,0.00 372462.62,4843738.08,0.00 372464.83,4843744.47,0.00 372465.96,4843754.80,0.00 372466.59,4843772.86,0.00 372469.94,4843812.42,0.00 372473.07,4843842.15,0.00 372473.69,4843848.07,0.00 372475.13,4843854.88,0.00 372477.23,4843860.60,0.00 372479.67,4843865.03,0.00 372484.05,4843869.17,0.00 372493.29,4843877.02,0.00 372500.86,4843882.93,0.00 372513.90,4843893.60,0.00" speed="13.89" />
	<edge id="93091319_1079045459_1079045346" from="1079045459" to="1079045346" numLanes="1" shape="372579.42,4843361.68,0.00 372583.48,4843359.37,0.00 372615.95,4843340.94,0.00 372618.63,4843338.64,0.00 372620.09,4843335.89,0.00 372620.86,4843334.29,0.00 372622.37,4843331.12,0.00" speed="13.89" />
	<edge id="93137566_252387599_252387589" from="252387599" to="252387589" numLanes="2" shape="373004.92,4843918.93,0.00 373049.18,4843915.33,0.00 373070.47,4843917.37,0.00 373085.48,4843918.83,0.00 373091.97,4843917.75,0.00 373094.00,4843915.60,0.00 373093.80,4843913.18,0.00 373092.78,4843910.26,0.00 373089.89,4843908.14,0.00" speed="13.89" />
	<edge id="176531067_6363741444_4011267551" from="6363741444" to="4011267551" numLanes="2" shape="372473.35,4843326.38,0.00 372463.98,4843312.55,0.00 372450.43,4843293.60,0.00 372426.28,4843267.01,0.00 372424.27,4843264.60,0.00 372422.83,4843262.17,0.00 372420.79,4843256.58,0.00" speed="16.67" />
	<edge id="334773233_25185552_1790048638" from="25185552" to="1790048638" numLanes="1" shape="373554.84,4844927.46,0.00 373555.60,4844915.03,0.00 373548.57,4844905.41,0.00 373501.73,4844886.80,0.00 373489.90,4844880.04,0.00 373488.79,4844870.13,0.00" speed="8.33" />
	<edge id="143536261_1079750450_1570717300" from="1079750450" to="1570717300" numLanes="2" shape="372728.50,4844076.38,0.00 372722.82,4844081.33,0.00 372720.58,4844083.29,0.00 372690.32,4844105.21,0.00 372684.98,4844106.85,0.00 372659.69,4844113.41,0.00 372644.05,4844117.40,0.00 372634.32,4844118.86,0.00 372630.36,4844117.78,0.00 372626.75,4844115.09,0.00 372625.15,4844111.10,0.00 372624.26,4844107.87,0.00 372623.90,4844106.64,0.00 372623.67,4844103.22,0.00 372624.84,4844099.46,0.00" speed="13.89" />
	<edge id="168104483_1868752079_1868752101" from="1868752079" to="1868752101" numLanes="2" shape="373015.27,4844047.16,0.00 373012.00,4844055.96,0.00 373006.82,4844081.05,0.00 373003.03,4844096.23,0.00 372999.24,4844103.26,0.00" speed="13.89" />
	<edge id="503801215_1870384824_1870384826" from="1870384824" to="1870384826" numLanes="1" shape="372840.98,4843329.49,0.00 372853.88,4843328.98,0.00" speed="13.89" />
	<edge id="157719664_4317081676_258072009" from="4317081676" to="258072009" numLanes="2" shape="373130.09,4844218.90,0.00 373143.44,4844238.48,0.00 373163.89,4844269.28,0.00 373170.46,4844275.82,0.00 373174.22,4844276.45,0.00" speed="13.89" />
	<edge id="157719641_252474584_1699777780" from="252474584" to="1699777780" numLanes="1" shape="373070.73,4844240.30,0.00 373046.50,4844259.26,0.00" speed="8.33" />
	<edge id="181479773_3419409376_1784106966" from="3419409376" to="1784106966" numLanes="2" shape="372476.99,4843483.67,0.00 372470.96,4843476.79,0.00" speed="8.33" />
	<edge id="4229327_25197962_25238772" from="25197962" to="25238772" numLanes="1" shape="372735.81,4843961.57,0.00 372730.68,4843963.66,0.00 372721.13,4843966.22,0.00 372715.02,4843968.50,0.00" speed="18.06" />
	<edge id="176334444_1868736612_4940249424" from="1868736612" to="4940249424" numLanes="1" shape="372270.32,4843142.92,0.00 372276.29,4843144.24,0.00 372283.51,4843146.91,0.00" speed="18.06" />
	<edge id="981971425_1868736765_1864130082" from="1868736765" to="1864130082" numLanes="1" shape="373766.55,4845070.49,0.00 373760.57,4845073.83,0.00 373747.77,4845078.94,0.00 373739.31,4845083.08,0.00 373724.45,4845092.05,0.00 373704.22,4845103.77,0.00 373701.45,4845104.77,0.00 373698.33,4845105.14,0.00 373694.23,4845104.67,0.00 373690.93,4845103.69,0.00 373687.87,4845102.03,0.00 373685.12,4845099.34,0.00 373682.03,4845095.90,0.00 373681.04,4845094.38,0.00 373680.02,4845091.80,0.00" speed="8.33" />
	<edge id="214636589_2241375226_25191729" from="2241375226" to="25191729" numLanes="1" shape="372954.35,4843573.42,0.00 372953.35,4843580.27,0.00 372952.37,4843587.00,0.00 372951.63,4843593.09,0.00 372950.48,4843600.08,0.00 372949.54,4843605.63,0.00 372947.71,4843616.49,0.00 372947.04,4843620.68,0.00 372946.74,4843622.59,0.00 372946.17,4843626.15,0.00 372944.37,4843637.30,0.00 372943.38,4843643.49,0.00 372943.25,4843644.31,0.00" speed="8.33" />
	<edge id="4229536_2422123078_1720683756" from="2422123078" to="1720683756" numLanes="1" shape="373209.32,4843892.31,0.00 373212.98,4843892.92,0.00 373231.49,4843895.26,0.00 373250.98,4843897.72,0.00 373265.09,4843899.51,0.00 373270.63,4843900.56,0.00 373286.70,4843903.59,0.00 373302.19,4843906.51,0.00 373317.89,4843910.37,0.00 373326.42,4843912.71,0.00 373331.11,4843914.00,0.00" speed="13.89" />
	<edge id="214635117_2750638811_252470578" from="2750638811" to="252470578" numLanes="1" shape="372527.29,4842698.09,0.00 372533.32,4842688.55,0.00 372574.52,4842647.40,0.00 372586.13,4842635.58,0.00 372588.61,4842633.05,0.00 372619.96,4842602.92,0.00 372631.65,4842591.91,0.00" speed="8.33" />
	<edge id="766768155_272958770_21914339" from="272958770" to="21914339" numLanes="2" shape="372882.05,4843857.93,0.00 372882.41,4843856.32,0.00 372883.40,4843854.69,0.00 372883.97,4843854.14,0.00 372885.22,4843852.97,0.00 372887.68,4843851.58,0.00 372890.45,4843850.85,0.00 372892.33,4843850.71,0.00" speed="13.89" />
	<edge id="158215192_25183872_1704462994" from="25183872" to="1704462994" numLanes="1" shape="372433.90,4843125.66,0.00 372411.03,4843150.36,0.00 372351.91,4843108.27,0.00" speed="8.33" />
	<edge id="8135845_25198559_25198656" from="25198559" to="25198656" numLanes="1" shape="372690.62,4844016.57,0.00 372688.12,4844006.82,0.00 372688.09,4843997.30,0.00 372689.41,4843991.46,0.00 372691.76,4843985.03,0.00 372694.69,4843979.56,0.00 372698.92,4843972.97,0.00 372704.04,4843967.38,0.00 372720.80,4843955.37,0.00 372735.05,4843948.05,0.00" speed="13.89" />
	<edge id="854880222_252362112_25195725" from="252362112" to="25195725" numLanes="1" shape="372475.09,4843403.18,0.00 372477.30,4843401.32,0.00 372500.04,4843387.29,0.00 372520.65,4843427.52,0.00 372526.35,4843426.59,0.00" speed="8.33" />
	<edge id="176674530_25239343_25239346" from="25239343" to="25239346" numLanes="1" shape="373113.99,4844022.54,0.00 373121.13,4844033.11,0.00 373126.46,4844042.34,0.00 373141.41,4844075.02,0.00" speed="13.89" />
	<edge id="851792659_1074584855_252356771" from="1074584855" to="252356771" numLanes="1" shape="372190.50,4843201.49,0.00 372195.55,4843203.53,0.00 372200.41,4843204.94,0.00" speed="13.89" />
	<edge id="4229243_1074584672_4453073043" from="1074584672" to="4453073043" numLanes="1" shape="372141.61,4842967.20,0.00 372151.60,4842973.16,0.00 372159.45,4842980.64,0.00 372164.72,4842990.54,0.00 372171.44,4843006.92,0.00 372183.50,4843026.44,0.00" speed="18.06" />
	<edge id="176337638_1868767795_1868767812" from="1868767795" to="1868767812" numLanes="1" shape="372645.57,4843940.49,0.00 372655.24,4843928.92,0.00 372664.39,4843920.76,0.00 372677.03,4843908.84,0.00 372679.74,4843905.54,0.00 372681.71,4843901.40,0.00 372683.42,4843896.26,0.00" speed="13.89" />
	<edge id="200493424_1074584878_25177245" from="1074584878" to="25177245" numLanes="1" shape="372657.39,4842842.82,0.00 372657.14,4842844.63,0.00 372656.32,4842846.28,0.00 372655.02,4842847.57,0.00 372653.37,4842848.39,0.00 372651.55,4842848.64,0.00 372649.74,4842848.30,0.00" speed="13.89" />