<?xml version="1.0" ?>
<!-- Generated by MOSAIC scenario-convert 18.0 -->
<routes>
	<vType id="default" length="7.5" maxSpeed="200" minGap="2.0" carFollowModel="Krauss" accel="0.80" decel="4.5" sigma="0.5" tau="1"/>
	<route id="1" edges="257071677_2626888293_2626888282 257071677_2626888282_2626888293 92627436_2626888293_1074584736 92627425_1074584736_1074584689 92627425_1074584689_1074585030 92627425_1074585030_1074584647 201009264_1074584647_1869347195 201009264_1869347195_1869347198 201009272_1869347198_1869347215 503753416_1869347215_4940249420 503753416_4940249420_1868736596 176974531_1868736596_1869347242 503753417_1869347242_4940249417 121380669_4940249417_1347559092 503471323_1347559092_1347559126 503471323_1347559126_1347559084 120114107_1347559084_1866510585 952419571_1866510585_1866510534 952419569_1866510534_6340759098 952419570_6340759098_1866510571 423632269_1866510571_1866510573 503462470_1866510573_1872357124 423632264_1872357124_1079045383 503813546_1079045383_1872357142 503813544_1872357142_1079045346 176757512_1079045346_1074584632 503813537_1074584632_2104842206 694608615_2104842206_25182046 694608614_25182046_1866423016 176086161_1866423016_25193617 165636038_25193617_25193709 165636038_25193709_1870384826 423632259_1870384826_1870384827 423632259_1870384827_4940692941 423632259_4940692941_1204288473 503813540_1204288473_25191904 166558481_25191904_25192169 161882793_25192169_1799099566 168681959_1799099566_477617968 60767229_477617968_25192130 4226740_25192130_1074585009 166399479_1074585009_1868404468 166399479_1868404468_25193333 166399479_25193333_25193350 166399479_25193350_6444966511 161882794_6444966511_21914339 165636064_21914339_1738360276" />
	<route id="2" edges="257071677_2626888293_2626888282 257071677_2626888282_2626888293 92627436_2626888293_252356770 166399486_252356770_1074584855 851792659_1074584855_252356771 92627433_252356771_25202446 155085108_25202446_25202525 688731299_25202525_252362085 503434355_252362085_1696644216 166399487_1696644216_25210895 94399553_25210895_1096593805 503434363_1096593805_25210891 503434363_25210891_1835348082 94399877_1835348082_25210887 94399455_25210887_25210879 159170465_25210879_25210837 166399488_25210837_1868767791 503434362_1868767791_1868767786 166399496_1868767786_25198656 4229326_25198656_25238669 95449780_25238669_25238698 95449778_25238698_3883559299 943188283_3883559299_25238712 4229329_25238712_1870233795 4229329_1870233795_25197985 106705725_25197985_1079750132 943191877_1079750132_25197679 788197747_25197679_1079750568 851792660_1079750568_3883559329 164338236_3883559329_25197470 851792661_25197470_1868752095 982081599_1868752095_1868752085 176336114_1868752085_3883559314 176321050_3883559314_1870233759 176510133_1870233759_1870233788 176674530_1870233788_251721437 176477340_251721437_1699777425 200502322_1699777425_1079751236 93137594_1079751236_252387603 176477344_252387603_1869953307 176477344_1869953307_252387599 93137566_252387599_252387589 157719644_252387589_1690130866 4227272_1690130866_1738360319 166399480_1738360319_25193377 161880707_25193377_272958770 766768155_272958770_21914339 165636064_21914339_1738360276" />
	<route id="3" edges="257071677_2626888293_2626888282 257071677_2626888282_2626888293 92627436_2626888293_1074584736 92627425_1074584736_1074584689 92627425_1074584689_1074585030 92627425_1074585030_1074584647 201009264_1074584647_1869347195 201009264_1869347195_1869347198 201009272_1869347198_1869347215 503753416_1869347215_4940249420 503753416_4940249420_1868736596 176974531_1868736596_1869347242 503753417_1869347242_4940249417 121380669_4940249417_1347559092 503471323_1347559092_1347559126 503471323_1347559126_1347559084 503471323_1347559084_1347559138 804900032_1347559138_1866510564 120114108_1866510564_1347551336 120113155_1347551336_1347551318 120113158_1347551318_1347551348 8352246_1347551348_25195517 159170479_25195517_25193806 164338230_25193806_25193813 159170535_25193813_25195716 159170505_25195716_1868404475 176293207_1868404475_2399195743 850261594_2399195743_1868404468 166399479_1868404468_25193333 166399479_25193333_25193350 166399479_25193350_6444966511 161882794_6444966511_21914339 165636064_21914339_1738360276" />
	<route id="4" edges="257071677_2626888293_2626888282 257071677_2626888282_2626888293 92627436_2626888293_1074584736 92627425_1074584736_1074584689 92627425_1074584689_1074585030 92627425_1074585030_1074584647 201009264_1074584647_1869347195 201009264_1869347195_1869347198 201009272_1869347198_1869347215 503753416_1869347215_4940249420 503753416_4940249420_1868736596 176974531_1868736596_1869347242 503753417_1869347242_4940249417 121380669_4940249417_1347559092 503471323_1347559092_1347559126 503471323_1347559126_1347559084 503471323_1347559084_1347559138 804900032_1347559138_1866510564 120114108_1866510564_1347551336 120113155_1347551336_1347551318 120113155_1347551318_2750633034 120113155_2750633034_1347117302 120113155_1347117302_1347113099 120062272_1347113099_25211178 120062660_25211178_25211203 120062661_25211203_25211212 120062661_25211212_25211283 78141884_25211283_25211277 93137606_25211277_25211216 176752959_25211216_1872310876 254596489_1872310876_1869953312 176477349_1869953312_1869953328 176477341_1869953328_1869953307 176477344_1869953307_252387599 93137566_252387599_252387589 157719644_252387589_1690130866 4227272_1690130866_1738360319 166399480_1738360319_25193377 161880707_25193377_272958770 766768155_272958770_21914339 165636064_21914339_1738360276" />
	<route id="5" edges="257071677_2626888293_2626888282 257071677_2626888282_2626888293 92627436_2626888293_1074584736 92627425_1074584736_1074584689 92627425_1074584689_1074585030 92627425_1074585030_1074584647 201009264_1074584647_1869347195 201009264_1869347195_1869347198 201009272_1869347198_1869347215 503753416_1869347215_4940249420 503753416_4940249420_1868736596 176974531_1868736596_1869347242 503753417_1869347242_4940249417 121380669_4940249417_1347559092 503471323_1347559092_1347559126 503471323_1347559126_1347559084 503471323_1347559084_1347559138 804900032_1347559138_1866510564 120114108_1866510564_1347551336 120113155_1347551336_1347551318 120113158_1347551318_1347551348 8352246_1347551348_25195517 159170479_25195517_25193806 164338230_25193806_25193813 159170535_25193813_25195716 159170505_25195716_1868404475 850261592_1868404475_1868404463 850261592_1868404463_2685548018 262902068_2685548018_2680832199 262902069_2680832199_25194068 159170509_25194068_25193350 166399479_25193350_6444966511 161882794_6444966511_21914339 165636064_21914339_1738360276" />
	<route id="6" edges="257071677_2626888293_2626888282 257071677_2626888282_2626888293 92627436_2626888293_1074584736 92627425_1074584736_1074584689 92627425_1074584689_1074585030 92627425_1074585030_1074584647 201009264_1074584647_1869347195 201009264_1869347195_1869347198 201009272_1869347198_1869347215 503753416_1869347215_4940249420 503753416_4940249420_1868736596 176974531_1868736596_1869347242 503753417_1869347242_4940249417 121380669_4940249417_1347559092 503471323_1347559092_1347559126 503471323_1347559126_1347559084 503471323_1347559084_1347559138 503471323_1347559138_1347559089 503471323_1347559089_1347559137 80377817_1347559137_937988403 176577460_937988403_25177478 158189815_25177478_25177449 261740026_25177449_25177743 182692348_25177743_2273257178 182692348_2273257178_1869239792 182692348_1869239792_1930502733 166399500_1930502733_4938436904 804900034_4938436904_4938969812 503559458_4938969812_1074584775 92627408_1074584775_25204264 503462460_25204264_25204258 503462476_25204258_25177819 503434372_25177819_1776309882 167625718_1776309882_25177427 80378487_25177427_1347559085 80378485_1347559085_25192216 4227242_25192216_1074585009 166399479_1074585009_1868404468 166399479_1868404468_25193333 166399479_25193333_25193350 166399479_25193350_6444966511 161882794_6444966511_21914339 165636064_21914339_1738360276" />
	<route id="7" edges="257071677_2626888293_2626888282 257071677_2626888282_2626888293 92627436_2626888293_252356770 166399486_252356770_1074584855 851792659_1074584855_252356771 92627433_252356771_25202446 155085108_25202446_25202525 688731299_25202525_252362085 503434355_252362085_1696644216 166399487_1696644216_25210895 94399553_25210895_1096593805 503434363_1096593805_25210891 503434363_25210891_1835348082 94399877_1835348082_25210887 94399455_25210887_25210879 159170465_25210879_25210837 166399488_25210837_1868767791 503434362_1868767791_1868767786 166399496_1868767786_25198656 4229326_25198656_25238669 95449780_25238669_25238698 95449778_25238698_3883559299 943188283_3883559299_25238712 166009795_25238712_25238728 166149556_25238728_25238772 4229327_25238772_25197962 4229325_25197962_25197949 166149542_25197949_252419723 166149542_252419723_252473576 166149542_252473576_1871618744 166149542_1871618744_25195807 166149542_25195807_25195773 254596870_25195773_258068679 159170450_258068679_8047787744 503475644_8047787744_4937755874 503475652_4937755874_4937755873 688669118_4937755873_1918966551 4227277_1918966551_1079045459 4227277_1079045459_6480060598 4227277_6480060598_4940692951 690653921_4940692951_2109529537 200998962_2109529537_1872357124 423632264_1872357124_1079045383 503813546_1079045383_1872357142 503813544_1872357142_1079045346 176757512_1079045346_1074584632 503813537_1074584632_2104842206 694608615_2104842206_25182046 694608614_25182046_1866423016 176086161_1866423016_25193617 165636038_25193617_25193709 165636038_25193709_1870384826 423632259_1870384826_1870384827 423632259_1870384827_4940692941 423632259_4940692941_1204288473 503813540_1204288473_25191904 166558481_25191904_25192169 161882793_25192169_1799099566 168681959_1799099566_477617968 60767229_477617968_25192130 4226740_25192130_1074585009 166399479_1074585009_1868404468 166399479_1868404468_25193333 166399479_25193333_25193350 166399479_25193350_6444966511 161882794_6444966511_21914339 165636064_21914339_1738360276" />
	<route id="8" edges="176760117_4940452748_8623016757 929856547_8623016757_29457984 503783377_29457984_4940452738 176760116_4940452738_4940452736 503783376_4940452736_4940452735 93137558_4940452735_4940452728 503783373_4940452728_4940452734 503783375_4940452734_21919238 93137560_21919238_1079751567 93137591_1079751567_1079751575 93137591_1079751575_1079751658 93137596_1079751658_1079750403 254596488_1079750403_273244852 503783369_273244852_4940452496 92627431_4940452496_21918825 503783368_21918825_273246003 92627405_273246003_252418705 254596487_252418705_267985520 157719689_267985520_250259418 157719653_250259418_250259426 92627427_250259426_279443200 92627418_279443200_279443211 92627403_279443211_918118142 78149827_918118142_1869953312 254596489_1869953312_1872310876 176752959_1872310876_25211216 93137606_25211216_25211277 78141884_25211277_25211283 120062658_25211283_1347117274 120062662_1347117274_1347117298 177425460_1347117298_1347117287 177425460_1347117287_1347117299 120062663_1347117299_1870233784 120062663_1870233784_1347551333 120113155_1347551333_1347551314 166643410_1347551314_1347559089 503471323_1347559089_1347559137 80377817_1347559137_937988403 176577460_937988403_25177478 158189815_25177478_25177449 166149571_25177449_4437805993 446530365_4437805993_2825675765 446530365_2825675765_2825675756 446530365_2825675756_25177718 158189826_25177718_1704201261 220547252_1704201261_2104742674" />
	<route id="9" edges="176760117_4940452748_8623016757 929856547_8623016757_29457984 503783377_29457984_4940452738 176760116_4940452738_4940452736 503783376_4940452736_4940452735 93137558_4940452735_4940452728 503783373_4940452728_4940452734 503783375_4940452734_21919238 93137560_21919238_1079751567 93137591_1079751567_1079751575 93137591_1079751575_1079751658 93137596_1079751658_1079750403 254596488_1079750403_273244852 24655134_273244852_273245506 353889276_273245506_267985353 353889272_267985353_273246212 353889280_273246212_273246269 25103774_273246269_1685061923 41929969_1685061923_519323656 4230891_519323656_21914343 160004393_21914343_1720683797 160004391_1720683797_1720683756 4229536_1720683756_2422123078 25082741_2422123078_21914340 161775593_21914340_25193217 503475642_25193217_1737389160 503475643_1737389160_25191729 214636589_25191729_2241375226 766768153_2241375226_25191634 766768152_25191634_1079045413 39839529_1079045413_1737389117 503559455_1737389117_4938436902 4227164_4938436902_1079045416 93091315_1079045416_1079045330 93091311_1079045330_1868280239 93091311_1868280239_1347559127 80378486_1347559127_1866510554 804900033_1866510554_1347559126 503471323_1347559126_1347559084 503471323_1347559084_1347559138 503471323_1347559138_1347559089 503471323_1347559089_1347559137 80377817_1347559137_937988403 176577460_937988403_25177478 158189815_25177478_25177449 166149571_25177449_4437805993 446530365_4437805993_2825675765 446530365_2825675765_2825675756 446530365_2825675756_25177718 158189826_25177718_1704201261 220547252_1704201261_2104742674" />
	<route id="10" edges="176760117_4940452748_8623016757 929856547_8623016757_29457984 503783377_29457984_4940452738 176760116_4940452738_4940452736 503783376_4940452736_4940452735 93137558_4940452735_4940452728 503783373_4940452728_4940452734 503783375_4940452734_21919238 93137560_21919238_1079751567 93137591_1079751567_1079751575 93137591_1079751575_1079751658 93137596_1079751658_1079750403 254596488_1079750403_273244852 24655134_273244852_273245506 353889276_273245506_267985353 200499288_267985353_6485591888 4230007_6485591888_21914666 568187257_21914666_1736930368 568187257_1736930368_1737114648 166399501_1737114648_1736930370 166399501_1736930370_21914841 4230011_21914841_21917445 4230011_21917445_1868723952 503462467_1868723952_1868723949 503434389_1868723949_1868723954 503434378_1868723954_1868723938 944079970_1868723938_258071970 944079970_258071970_258071974 507581432_258071974_4970587864 507581429_4970587864_4970587861 507581429_4970587861_4970587876 507581426_4970587876_258071979 507581437_258071979_1699777833 792870577_1699777833_258072562 788120422_258072562_258072016 39838824_258072016_258071984 788120420_258071984_21917586 166009792_21917586_252458631 166009792_252458631_21917628 166009792_21917628_3883559329 851792660_3883559329_1079750568 788197747_1079750568_25197679 78147638_25197679_1079750450 78147638_1079750450_25198472 788197746_25198472_1265685487 788197746_1265685487_1870233792 788197746_1870233792_25198559 4229328_25198559_25238728 166149556_25238728_25238772 4229327_25238772_25197962 4229325_25197962_25197949 166149542_25197949_252419723 166149542_252419723_252473576 166149542_252473576_1871618744 166149542_1871618744_25195807 166149542_25195807_25195773 254596870_25195773_258068679 159170450_258068679_8047787744 503475644_8047787744_4937755874 503475652_4937755874_4937755873 688669118_4937755873_1918966551 4227277_1918966551_1079045459 4227277_1079045459_6480060598 4227277_6480060598_4940692951 690653921_4940692951_2109529537 398362860_2109529537_1866510556 952419572_1866510556_1866510585 120114107_1866510585_1347559084 503471323_1347559084_1347559138 503471323_1347559138_1347559089 503471323_1347559089_1347559137 80377817_1347559137_937988403 176577460_937988403_25177478 158189815_25177478_25177449 166149571_25177449_4437805993 446530365_4437805993_2825675765 446530365_2825675765_2825675756 446530365_2825675756_25177718 158189826_25177718_1704201261 220547252_1704201261_2104742674" />
	<route id="11" edges="176760117_4940452748_8623016757 929856547_8623016757_29457984 503783377_29457984_4940452738 176760116_4940452738_4940452736 503783376_4940452736_4940452735 93137558_4940452735_4940452728 503783373_4940452728_4940452734 503783375_4940452734_21919238 93137560_21919238_1079751567 93137591_1079751567_1079751575 93137591_1079751575_1079751658 93137596_1079751658_1079750403 254596488_1079750403_273244852 503783369_273244852_4940452496 92627431_4940452496_21918825 503783368_21918825_273246003 92627405_273246003_252418705 254596487_252418705_267985520 157719689_267985520_250259418 157719653_250259418_250259426 92627427_250259426_279443200 92627418_279443200_279443211 92627403_279443211_918118142 78149827_918118142_1869953312 176477349_1869953312_1869953328 176477341_1869953328_1869953307 176477344_1869953307_252387599 93137566_252387599_252387589 157719644_252387589_1690130866 4227272_1690130866_1738360319 166399480_1738360319_25193377 161882802_25193377_25193390 8352246_25193390_1878844644 8352246_1878844644_25194120 8352246_25194120_263074910 8352246_263074910_263075529 8352246_263075529_25194413 120062665_25194413_1347117302 120113155_1347117302_1347113099 120113155_1347113099_1347551333 120113155_1347551333_1347551314 166643410_1347551314_1347559089 503471323_1347559089_1347559137 80377817_1347559137_937988403 176577460_937988403_25177478 158189815_25177478_25177449 166149571_25177449_4437805993 446530365_4437805993_2825675765 446530365_2825675765_2825675756 446530365_2825675756_25177718 158189826_25177718_1704201261 220547252_1704201261_2104742674" />
	<route id="12" edges="176760117_4940452748_8623016757 929856547_8623016757_29457984 503783377_29457984_4940452738 176760116_4940452738_4940452736 503783376_4940452736_4940452735 93137558_4940452735_4940452728 503783373_4940452728_4940452734 503783375_4940452734_21919238 93137560_21919238_1079751567 93137591_1079751567_1079751575 93137591_1079751575_1079751658 93137596_1079751658_1079750403 254596488_1079750403_273244852 24655134_273244852_273245506 353889276_273245506_267985353 200499288_267985353_6485591888 4230007_6485591888_21914666 568187257_21914666_1736930368 568187257_1736930368_1737114648 166399501_1737114648_1736930370 166399501_1736930370_21914841 434567309_21914841_272637923 4230006_272637923_1699777574 157719698_1699777574_25240089 166009791_25240089_21915639 157719652_21915639_21912099 157719647_21912099_2104788829 157719647_2104788829_25239346 176674530_25239346_25239343 176674530_25239343_1870233788 176674530_1870233788_251721437 176477340_251721437_1699777425 200502322_1699777425_1079751236 93137594_1079751236_252387603 176477344_252387603_1869953307 176477344_1869953307_252387599 93137566_252387599_252387589 157719644_252387589_1690130866 4227272_1690130866_1738360319 166399480_1738360319_25193377 161882802_25193377_25193390 8352246_25193390_1878844644 8352246_1878844644_25194120 8352246_25194120_263074910 8352246_263074910_263075529 8352246_263075529_25194413 120062665_25194413_1347117302 120113155_1347117302_1347113099 120113155_1347113099_1347551333 120113155_1347551333_1347551314 166643410_1347551314_1347559089 503471323_1347559089_1347559137 80377817_1347559137_937988403 176577460_937988403_25177478 158189815_25177478_25177449 166149571_25177449_4437805993 446530365_4437805993_2825675765 446530365_2825675765_2825675756 446530365_2825675756_25177718 158189826_25177718_1704201261 220547252_1704201261_2104742674" />
	<route id="13" edges="176760117_4940452748_8623016757 929856547_8623016757_29457984 503783377_29457984_4940452738 176760116_4940452738_4940452736 503783376_4940452736_4940452735 93137558_4940452735_4940452728 503783373_4940452728_4940452734 503783375_4940452734_21919238 93137560_21919238_1079751567 93137591_1079751567_1079751575 157719645_1079751575_1789813053 157719645_1789813053_21917445 4230011_21917445_1868723952 503462467_1868723952_1868723949 503434389_1868723949_1868723954 503434378_1868723954_1868723938 944079970_1868723938_258071970 944079970_258071970_258071974 507581432_258071974_4970587864 507581429_4970587864_4970587861 507581429_4970587861_4970587876 507581426_4970587876_258071979 507581437_258071979_1699777833 792870577_1699777833_258072562 788120422_258072562_258072016 39838824_258072016_258071984 788120420_258071984_21917586 166009792_21917586_252458631 166009792_252458631_21917628 166009792_21917628_3883559329 851792660_3883559329_1079750568 788197747_1079750568_25197679 78147638_25197679_1079750450 78147638_1079750450_25198472 788197746_25198472_1265685487 788197746_1265685487_1870233792 788197746_1870233792_25198559 4229328_25198559_25238728 166149556_25238728_25238772 4229327_25238772_25197962 4229325_25197962_25197949 166149542_25197949_252419723 166149542_252419723_252473576 166149542_252473576_1871618744 166149542_1871618744_25195807 166149542_25195807_25195773 254596870_25195773_258068679 159170450_258068679_8047787744 503475644_8047787744_4937755874 503475652_4937755874_4937755873 688669118_4937755873_1918966551 4227277_1918966551_1079045459 4227277_1079045459_6480060598 4227277_6480060598_4940692951 690653921_4940692951_2109529537 398362860_2109529537_1866510556 952419572_1866510556_1866510585 120114107_1866510585_1347559084 503471323_1347559084_1347559138 503471323_1347559138_1347559089 503471323_1347559089_1347559137 80377817_1347559137_937988403 176577460_937988403_25177478 158189815_25177478_25177449 166149571_25177449_4437805993 446530365_4437805993_2825675765 446530365_2825675765_2825675756 446530365_2825675756_25177718 158189826_25177718_1704201261 220547252_1704201261_2104742674" />
	<route id="14" edges="176760117_4940452748_8623016757 929856547_8623016757_29457984 503783377_29457984_4940452738 176760116_4940452738_4940452736 503783376_4940452736_4940452735 93137558_4940452735_4940452728 503783373_4940452728_4940452734 503783375_4940452734_21919238 93137560_21919238_1079751567 93137591_1079751567_1079751575 93137591_1079751575_1079751658 93137596_1079751658_1079750403 254596488_1079750403_273244852 503783369_273244852_4940452496 92627431_4940452496_21918825 503783368_21918825_273246003 92627405_273246003_252418705 254596487_252418705_267985520 157719689_267985520_250259418 157719653_250259418_250259426 92627427_250259426_279443200 92627418_279443200_279443211 92627403_279443211_918118142 78149827_918118142_1869953312 254596489_1869953312_1872310876 176752959_1872310876_25211216 93137606_25211216_25211277 78141884_25211277_25211283 120062658_25211283_1347117274 120062662_1347117274_1347117298 177425460_1347117298_1347117287 177425460_1347117287_1347117299 120062663_1347117299_1870233784 120062663_1870233784_1347551333 120113155_1347551333_1347551314 120113155_1347551314_1347551336 120113155_1347551336_1347551318 120113158_1347551318_1347551348 8352246_1347551348_25195517 8352246_25195517_252419005 8352246_252419005_1866422978 176086162_1866422978_4937556546 503813539_4937556546_25182101 503475651_25182101_1918966551 4227277_1918966551_1079045459 4227277_1079045459_6480060598 4227277_6480060598_4940692951 690653921_4940692951_2109529537 398362860_2109529537_1866510556 952419572_1866510556_1866510585 120114107_1866510585_1347559084 503471323_1347559084_1347559138 503471323_1347559138_1347559089 503471323_1347559089_1347559137 80377817_1347559137_937988403 176577460_937988403_25177478 158189815_25177478_25177449 166149571_25177449_4437805993 446530365_4437805993_2825675765 446530365_2825675765_2825675756 446530365_2825675756_25177718 158189826_25177718_1704201261 220547252_1704201261_2104742674" />
	<route id="15" edges="353889383_21930608_1080509817 624357053_1080509817_21928964 503633029_21928964_1079750471 93207291_1079750471_21928938 503638814_21928938_1352289907 165636065_1352289907_21923561 165636065_21923561_1770577842 851792663_1770577842_3419670594 176334442_3419670594_1868736570 176334445_1868736570_1868736651 176334445_1868736651_1868736765 176334445_1868736765_1868736741 4098197_1868736741_21918500 423873046_21918500_1868723951 165636047_1868723951_21918450 176333307_21918450_21918402 4230186_21918402_25243374 4230187_25243374_1868723954 503434378_1868723954_1868723938 944079970_1868723938_258071970 944079970_258071970_258071974 507581432_258071974_4970587864 507581429_4970587864_4970587861 507581429_4970587861_4970587876 507581426_4970587876_258071979 507581437_258071979_1699777833 792870577_1699777833_258072562 788120422_258072562_258072016 39838824_258072016_258071984 788120420_258071984_21917586 166009792_21917586_252458631 166009792_252458631_21917628 166009792_21917628_3883559329 851792660_3883559329_1079750568 788197747_1079750568_25197679 78147638_25197679_1079750450 78147638_1079750450_25198472 788197746_25198472_1265685487 788197746_1265685487_1870233792 788197746_1870233792_25198559 4229328_25198559_25238728 166149556_25238728_25238772 4229327_25238772_25197962 4229325_25197962_25197949 166149542_25197949_252419723 166149542_252419723_252473576 166149542_252473576_1871618744 166149542_1871618744_25195807 166149542_25195807_25195773 254596870_25195773_258068679 159170450_258068679_8047787744 503475644_8047787744_4937755874 503475652_4937755874_4937755873 688669118_4937755873_1918966551 4227277_1918966551_1079045459 4227277_1079045459_6480060598 4227277_6480060598_4940692951 690653921_4940692951_2109529537 398362860_2109529537_1866510556 952419572_1866510556_1866510585 952419571_1866510585_1866510534 176395398_1866510534_1869347245 176395396_1869347245_1869347190 176395397_1869347190_1868736612 176334444_1868736612_4940249424 503753418_4940249424_4937466461 503753419_4937466461_2109529551 503753420_2109529551_4940249422 503753420_4940249422_2109571494 201009270_2109571494_1869347215 503753416_1869347215_4940249420 503753416_4940249420_1868736596" />
	<route id="16" edges="353889383_21930608_1080509817 624357053_1080509817_21928964 503633029_21928964_1079750471 93207291_1079750471_21928938 503638814_21928938_1352289907 165636065_1352289907_21923561 165636065_21923561_1770577842 851792663_1770577842_3419670594 176334442_3419670594_1868736570 176334445_1868736570_1868736651 176334445_1868736651_1868736765 176334445_1868736765_1868736741 4098197_1868736741_21918500 423873046_21918500_1868723951 165636047_1868723951_21918450 176333307_21918450_21918402 4230186_21918402_25243374 4230187_25243374_1868723954 503434378_1868723954_1868723938 503434396_1868723938_1868723931 165636046_1868723931_25240089 166009791_25240089_21915639 157719652_21915639_21912099 157719647_21912099_2104788829 157719647_2104788829_25239346 176674530_25239346_25239343 176674530_25239343_1870233788 176674530_1870233788_251721437 176477340_251721437_1699777425 200502322_1699777425_1079751236 93137594_1079751236_252387603 176477344_252387603_1869953307 176477344_1869953307_252387599 93137566_252387599_252387589 157719644_252387589_1690130866 4227272_1690130866_1738360319 166399480_1738360319_25193377 161882802_25193377_25193390 8352246_25193390_1878844644 8352246_1878844644_25194120 8352246_25194120_263074910 8352246_263074910_263075529 8352246_263075529_25194413 120062665_25194413_1347117302 120113155_1347117302_1347113099 120113155_1347113099_1347551333 120113155_1347551333_1347551314 166643410_1347551314_1347559089 503471323_1347559089_1347559137 503471323_1347559137_1347559092 503471323_1347559092_1347559126 503471323_1347559126_1347559084 120114107_1347559084_1866510585 952419571_1866510585_1866510534 176395398_1866510534_1869347245 176395396_1869347245_1869347190 176395397_1869347190_1868736612 176334444_1868736612_4940249424 503753418_4940249424_4937466461 503753419_4937466461_2109529551 503753420_2109529551_4940249422 503753420_4940249422_2109571494 201009270_2109571494_1869347215 503753416_1869347215_4940249420 503753416_4940249420_1868736596" />
	<route id="17" edges="353889383_21930608_1080509817 624357053_1080509817_21928964 503633029_21928964_1079750471 93207291_1079750471_21928938 503638814_21928938_1352289907 165636065_1352289907_21923561 165636065_21923561_1770577842 851792663_1770577842_3419670594 176334442_3419670594_1868736570 176334445_1868736570_1868736651 176334445_1868736651_1868736765 176334445_1868736765_1868736741 4098197_1868736741_21918500 423873046_21918500_1868723951 165636047_1868723951_21918450 176333307_21918450_21918402 4230186_21918402_25243374 4230187_25243374_1868723954 503434378_1868723954_1868723938 503434396_1868723938_1868723931 176333306_1868723931_1868723952 4230011_1868723952_21917445 4230011_21917445_21914841 166399501_21914841_1736930370 166399501_1736930370_1737114648 568187257_1737114648_1736930368 568187257_1736930368_21914666 4230007_21914666_6485591888 25103769_6485591888_273246211 176334446_273246211_267985519 92627415_267985519_267985520 157719689_267985520_250259418 157719653_250259418_250259426 92627427_250259426_279443200 92627418_279443200_279443211 92627403_279443211_918118142 78149827_918118142_1869953312 254596489_1869953312_1872310876 176752959_1872310876_25211216 93137606_25211216_25211277 78141884_25211277_25211283 120062658_25211283_1347117274 120062662_1347117274_1347117298 177425460_1347117298_1347117287 177425460_1347117287_1347117299 120062663_1347117299_1870233784 120062663_1870233784_1347551333 120113155_1347551333_1347551314 166643410_1347551314_1347559089 503471323_1347559089_1347559137 503471323_1347559137_1347559092 503471323_1347559092_1347559126 503471323_1347559126_1347559084 120114107_1347559084_1866510585 952419571_1866510585_1866510534 176395398_1866510534_1869347245 176395396_1869347245_1869347190 176395397_1869347190_1868736612 176334444_1868736612_4940249424 503753418_4940249424_4937466461 503753419_4937466461_2109529551 503753420_2109529551_4940249422 503753420_4940249422_2109571494 201009270_2109571494_1869347215 503753416_1869347215_4940249420 503753416_4940249420_1868736596" />