<?xml version="1.0" encoding="UTF-8"?>

<!-- generated on 2021-11-19 00:45:14 by Eclipse SUMO netconvert Version 1.10.0
<configuration xmlns:xsi="http://www.w3.org/2001/XMLSchema-instance" xsi:noNamespaceSchemaLocation="http://sumo.dlr.de/xsd/netconvertConfiguration.xsd">

    <input>
        <node-files value="/Users/turkcuoglu/Documents/GitHub/hackathon-mosaic/bundle/src/assembly/resources/scenarios/Monaco/sumo/Monaco.nod.xml"/>
        <edge-files value="/Users/turkcuoglu/Documents/GitHub/hackathon-mosaic/bundle/src/assembly/resources/scenarios/Monaco/sumo/Monaco.edg.xml"/>
        <connection-files value="/Users/turkcuoglu/Documents/GitHub/hackathon-mosaic/bundle/src/assembly/resources/scenarios/Monaco/sumo/Monaco.con.xml"/>
    </input>

    <output>
        <output-file value="/Users/turkcuoglu/Documents/GitHub/hackathon-mosaic/bundle/src/assembly/resources/scenarios/Monaco/sumo/Monaco.net.xml"/>
    </output>

    <report>
        <aggregate-warnings value="5"/>
    </report>

</configuration>
-->

<net version="1.9" junctionCornerDetail="5" limitTurnSpeed="5.50" xmlns:xsi="http://www.w3.org/2001/XMLSchema-instance" xsi:noNamespaceSchemaLocation="http://sumo.dlr.de/xsd/net_file.xsd">

    <location netOffset="-371662.59,-4842510.01" convBoundary="0.00,0.00,2652.08,2990.55" origBoundary="371662.59,4842510.01,374314.67,4845500.56" projParameter="!"/>

    <edge id=":1074584632_0" function="internal">
        <lane id=":1074584632_0_0" index="0" speed="13.89" length="1.16" shape="1004.15,848.97 1003.39,848.30"/>
        <lane id=":1074584632_0_1" index="1" speed="13.89" length="1.16" shape="1002.08,851.41 1001.10,850.54"/>
    </edge>
    <edge id=":1074584647_0" function="internal">
        <lane id=":1074584647_0_0" index="0" speed="6.99" length="9.22" shape="339.28,530.81 337.40,529.47 335.38,528.99 333.22,529.40 330.91,530.67"/>
    </edge>
    <edge id=":1074584647_1" function="internal">
        <lane id=":1074584647_1_0" index="0" speed="13.89" length="9.98" shape="337.28,519.17 337.94,522.07 338.39,524.13 339.24,525.95 341.12,528.14"/>
    </edge>
    <edge id=":1074584647_2" function="internal">
        <lane id=":1074584647_2_0" index="0" speed="9.21" length="13.32" shape="337.28,519.17 337.48,522.05 336.49,524.92 334.30,527.80 330.91,530.67"/>
        <lane id=":1074584647_2_1" index="1" speed="7.47" length="13.32" shape="333.85,518.77 334.28,522.19 333.47,524.90 331.42,526.88 328.13,528.14"/>
    </edge>
    <edge id=":1074584672_0" function="internal">
        <lane id=":1074584672_0_0" index="0" speed="9.82" length="9.44" shape="487.36,464.03 485.43,463.19 483.26,462.82 480.85,462.93 478.20,463.51"/>
    </edge>
    <edge id=":1074584672_1" function="internal">
        <lane id=":1074584672_1_0" index="0" speed="7.29" length="9.32" shape="486.21,453.17 485.79,455.74 486.12,457.95 487.19,459.80 489.00,461.28"/>
    </edge>
    <edge id=":1074584672_2" function="internal">
        <lane id=":1074584672_2_0" index="0" speed="10.26" length="13.04" shape="486.21,453.17 484.77,457.08 482.96,460.11 480.77,462.25 478.20,463.51"/>
        <lane id=":1074584672_2_1" index="1" speed="8.26" length="13.04" shape="483.18,451.22 482.92,454.57 481.75,457.25 479.68,459.27 476.69,460.62"/>
    </edge>
    <edge id=":1074584689_0" function="internal">
        <lane id=":1074584689_0_0" index="0" speed="7.04" length="4.15" shape="319.45,506.83 320.26,507.76 320.89,508.39 321.64,508.76 322.82,508.94"/>
    </edge>
    <edge id=":1074584689_1" function="internal">
        <lane id=":1074584689_1_0" index="0" speed="7.01" length="7.31" shape="315.73,515.45 316.68,513.02 317.15,511.05 317.14,509.54 316.64,508.49"/>
    </edge>
    <edge id=":1074584689_2" function="internal">
        <lane id=":1074584689_2_0" index="0" speed="7.96" length="11.09" shape="315.73,515.45 317.31,512.51 319.02,510.44 320.85,509.25 322.82,508.94"/>
        <lane id=":1074584689_2_1" index="1" speed="8.59" length="11.09" shape="318.19,517.79 319.78,515.29 321.95,513.58 324.70,512.64 328.05,512.48"/>
    </edge>
    <edge id=":1074584736_0" function="internal">
        <lane id=":1074584736_0_0" index="0" speed="5.97" length="8.25" shape="327.87,531.49 325.02,532.37 323.16,533.47 322.30,534.79 322.44,536.32"/>
    </edge>
    <edge id=":1074584736_1" function="internal">
        <lane id=":1074584736_1_0" index="0" speed="9.26" length="12.35" shape="327.87,531.49 324.71,531.76 321.76,531.06 319.03,529.38 316.52,526.73"/>
        <lane id=":1074584736_1_1" index="1" speed="7.50" length="12.35" shape="327.94,528.19 324.52,528.57 321.80,527.98 319.79,526.41 318.49,523.85"/>
    </edge>
    <edge id=":1074584736_3" function="internal">
        <lane id=":1074584736_3_0" index="0" speed="11.76" length="8.86" shape="319.11,534.93 319.02,532.32 318.75,530.50 318.01,528.85 316.52,526.73"/>
    </edge>
    <edge id=":1074584775_0" function="internal">
        <lane id=":1074584775_0_0" index="0" speed="8.33" length="14.87" shape="797.88,543.19 808.63,553.51"/>
        <lane id=":1074584775_0_1" index="1" speed="8.33" length="14.87" shape="795.68,545.51 806.38,555.79"/>
    </edge>
    <edge id=":1074584775_2" function="internal">
        <lane id=":1074584775_2_0" index="0" speed="7.44" length="5.07" shape="796.58,555.46 798.92,551.71 799.49,551.39"/>
        <lane id=":1074584775_2_1" index="1" speed="5.49" length="2.59" shape="800.10,555.40 801.16,553.90 801.87,553.68"/>
    </edge>
    <edge id=":1074584775_4" function="internal">
        <lane id=":1074584775_4_0" index="0" speed="7.44" length="10.46" shape="799.49,551.39 801.71,550.13 804.95,550.73 808.63,553.51"/>
    </edge>
    <edge id=":1074584775_5" function="internal">
        <lane id=":1074584775_5_0" index="0" speed="5.49" length="5.25" shape="801.87,553.68 802.56,553.46 804.30,554.09 806.38,555.79"/>
    </edge>
    <edge id=":1074584798_0" function="internal">
        <lane id=":1074584798_0_0" index="0" speed="8.33" length="8.02" shape="981.94,333.95 981.75,331.58 981.48,329.98 981.07,328.40 980.44,326.10"/>
    </edge>
    <edge id=":1074584798_1" function="internal">
        <lane id=":1074584798_1_0" index="0" speed="7.58" length="8.22" shape="981.94,333.95 982.04,331.63 982.61,329.68 983.68,328.10 985.23,326.90"/>
    </edge>
    <edge id=":1074584855_0" function="internal">
        <lane id=":1074584855_0_0" index="0" speed="13.89" length="0.49" shape="527.46,693.02 527.33,692.97 527.24,692.93 527.15,692.89 527.02,692.82"/>
    </edge>
    <edge id=":1074584855_1" function="internal">
        <lane id=":1074584855_1_0" index="0" speed="3.65" length="2.34" shape="527.46,693.02 526.65,691.83 526.58,690.94"/>
    </edge>
    <edge id=":1074584855_4" function="internal">
        <lane id=":1074584855_4_0" index="0" speed="3.65" length="2.34" shape="526.58,690.94 527.25,690.35 528.66,690.06"/>
    </edge>
    <edge id=":1074584855_2" function="internal">
        <lane id=":1074584855_2_0" index="0" speed="13.89" length="0.16" shape="528.51,689.99 528.56,690.01 528.59,690.03 528.62,690.04 528.66,690.06"/>
    </edge>
    <edge id=":1074584855_3" function="internal">
        <lane id=":1074584855_3_0" index="0" speed="3.65" length="2.34" shape="528.51,689.99 529.20,691.26 529.18,692.15"/>
    </edge>
    <edge id=":1074584855_5" function="internal">
        <lane id=":1074584855_5_0" index="0" speed="3.65" length="2.34" shape="529.18,692.15 528.45,692.67 527.02,692.82"/>
    </edge>
    <edge id=":1074584863_0" function="internal">
        <lane id=":1074584863_0_0" index="0" speed="8.33" length="9.27" shape="1136.76,216.63 1134.37,216.72 1132.30,217.17 1130.57,217.97 1129.18,219.12"/>
        <lane id=":1074584863_0_1" index="1" speed="8.33" length="9.27" shape="1136.17,213.41 1133.38,213.55 1130.89,214.19 1128.70,215.33 1126.82,216.95"/>
    </edge>
    <edge id=":1074584863_2" function="internal">
        <lane id=":1074584863_2_0" index="0" speed="8.33" length="1.27" shape="1132.56,210.83 1132.59,212.10"/>
        <lane id=":1074584863_2_1" index="1" speed="7.55" length="1.91" shape="1129.41,211.39 1129.41,212.61 1129.19,213.27"/>
    </edge>
    <edge id=":1074584863_4" function="internal">
        <lane id=":1074584863_4_0" index="0" speed="8.33" length="7.99" shape="1132.59,212.10 1132.61,212.80 1132.06,214.84 1130.92,216.95 1129.18,219.12"/>
    </edge>
    <edge id=":1074584863_5" function="internal">
        <lane id=":1074584863_5_0" index="0" speed="7.55" length="4.41" shape="1129.19,213.27 1128.97,213.94 1128.11,215.38 1126.82,216.95"/>
    </edge>
    <edge id=":1074584878_0" function="internal">
        <lane id=":1074584878_0_0" index="0" speed="11.11" length="10.18" shape="1002.16,333.03 999.30,333.57 997.51,334.57 995.98,336.12 993.91,338.35"/>
    </edge>
    <edge id=":1074584878_1" function="internal">
        <lane id=":1074584878_1_0" index="0" speed="7.52" length="7.74" shape="994.27,327.74 995.38,328.87 996.93,329.61 998.91,329.95 1001.34,329.89"/>
    </edge>
    <edge id=":1074584878_2" function="internal">
        <lane id=":1074584878_2_0" index="0" speed="7.86" length="11.64" shape="994.27,327.74 995.79,330.72 996.24,333.48 995.61,336.02 993.91,338.35"/>
    </edge>
    <edge id=":1074584934_0" function="internal">
        <lane id=":1074584934_0_0" index="0" speed="8.33" length="0.30" shape="1232.25,281.09 1232.01,280.94"/>
        <lane id=":1074584934_0_1" index="1" speed="8.33" length="0.30" shape="1233.96,278.38 1233.69,278.22"/>
    </edge>
    <edge id=":1074585009_0" function="internal">
        <lane id=":1074585009_0_0" index="0" speed="13.89" length="3.01" shape="1246.82,955.57 1246.44,956.37 1246.18,956.93 1245.95,957.50 1245.67,958.34"/>
        <lane id=":1074585009_0_1" index="1" speed="13.89" length="3.01" shape="1243.74,954.59 1243.36,955.40 1243.11,955.96 1242.90,956.53 1242.62,957.38"/>
    </edge>
    <edge id=":1074585009_2" function="internal">
        <lane id=":1074585009_2_0" index="0" speed="15.28" length="2.99" shape="1246.57,955.49 1245.67,958.34"/>
        <lane id=":1074585009_2_1" index="1" speed="15.28" length="2.99" shape="1243.52,954.52 1242.62,957.38"/>
    </edge>
    <edge id=":1074585030_0" function="internal">
        <lane id=":1074585030_0_0" index="0" speed="10.06" length="8.66" shape="326.27,504.44 327.17,506.81 328.12,508.32 329.51,509.46 331.73,510.72"/>
    </edge>
    <edge id=":1074585030_1" function="internal">
        <lane id=":1074585030_1_0" index="0" speed="4.16" length="3.98" shape="323.02,508.95 323.56,508.77 323.78,508.13 323.67,507.02 323.24,505.46"/>
    </edge>
    <edge id=":1074585030_2" function="internal">
        <lane id=":1074585030_2_0" index="0" speed="13.89" length="5.65" shape="323.02,508.95 325.70,509.05 327.57,509.15 329.34,509.60 331.73,510.72"/>
        <lane id=":1074585030_2_1" index="1" speed="8.91" length="5.65" shape="328.24,512.49 328.88,512.61 329.28,512.85 329.65,513.16 330.21,513.54"/>
    </edge>
    <edge id=":1074585031_0" function="internal">
        <lane id=":1074585031_0_0" index="0" speed="10.11" length="9.62" shape="470.25,470.28 469.68,468.13 468.62,466.11 467.07,464.24 465.02,462.51"/>
        <lane id=":1074585031_0_1" index="1" speed="12.11" length="13.97" shape="473.42,469.83 472.60,466.97 471.00,464.18 468.59,461.47 465.39,458.82"/>
    </edge>
    <edge id=":1074585031_2" function="internal">
        <lane id=":1074585031_2_0" index="0" speed="10.81" length="12.51" shape="477.88,463.60 474.05,464.43 470.64,464.52 467.63,463.88 465.02,462.51"/>
        <lane id=":1074585031_2_1" index="1" speed="10.14" length="12.51" shape="476.50,460.67 473.53,461.23 470.69,461.11 467.97,460.31 465.39,458.82"/>
    </edge>
    <edge id=":1079045330_0" function="internal">
        <lane id=":1079045330_0_0" index="0" speed="18.06" length="0.30" shape="1307.05,812.92 1306.77,812.88"/>
        <lane id=":1079045330_0_1" index="1" speed="18.06" length="0.30" shape="1307.48,809.75 1307.18,809.71"/>
    </edge>
    <edge id=":1079045346_0" function="internal">
        <lane id=":1079045346_0_0" index="0" speed="13.89" length="10.39" shape="955.19,816.35 957.95,817.48 960.24,817.62 962.55,817.80 965.41,819.10"/>
        <lane id=":1079045346_0_1" index="1" speed="13.89" length="10.39" shape="955.19,816.35 963.63,821.76"/>
    </edge>
    <edge id=":1079045346_2" function="internal">
        <lane id=":1079045346_2_0" index="0" speed="3.65" length="2.55" shape="955.19,816.35 955.78,817.66 955.69,818.55 955.51,818.66"/>
    </edge>
    <edge id=":1079045346_4" function="internal">
        <lane id=":1079045346_4_0" index="0" speed="3.65" length="2.12" shape="955.51,818.66 954.93,819.02 953.49,819.06"/>
    </edge>
    <edge id=":1079045346_3" function="internal">
        <lane id=":1079045346_3_0" index="0" speed="6.43" length="8.33" shape="955.52,826.19 956.27,824.10 956.18,822.21 955.25,820.53 953.49,819.06"/>
    </edge>
    <edge id=":1079045383_0" function="internal">
        <lane id=":1079045383_0_0" index="0" speed="13.89" length="8.79" shape="923.97,802.93 916.04,799.13"/>
    </edge>
    <edge id=":1079045383_1" function="internal">
        <lane id=":1079045383_1_0" index="0" speed="3.65" length="2.61" shape="923.97,802.93 923.23,801.69 923.21,800.80 923.43,800.63"/>
    </edge>
    <edge id=":1079045383_5" function="internal">
        <lane id=":1079045383_5_0" index="0" speed="3.65" length="2.06" shape="923.43,800.63 923.92,800.25 925.35,800.05"/>
    </edge>
    <edge id=":1079045383_2" function="internal">
        <lane id=":1079045383_2_0" index="0" speed="13.89" length="8.60" shape="918.76,793.34 921.08,794.38 922.73,794.98 924.43,795.41 926.92,795.98"/>
    </edge>
    <edge id=":1079045383_3" function="internal">
        <lane id=":1079045383_3_0" index="0" speed="13.89" length="9.58" shape="918.76,793.34 920.99,794.94 922.06,796.68 923.13,798.42 925.35,800.05"/>
    </edge>
    <edge id=":1079045383_4" function="internal">
        <lane id=":1079045383_4_0" index="0" speed="3.65" length="2.34" shape="917.40,796.23 918.15,797.47 918.17,798.36"/>
    </edge>
    <edge id=":1079045383_6" function="internal">
        <lane id=":1079045383_6_0" index="0" speed="3.65" length="2.34" shape="918.17,798.36 917.47,798.92 916.04,799.13"/>
    </edge>
    <edge id=":1079045413_0" function="internal">
        <lane id=":1079045413_0_0" index="0" speed="8.33" length="0.10" shape="1374.89,874.02 1374.86,874.11"/>
    </edge>
    <edge id=":1079045413_1" function="internal">
        <lane id=":1079045413_1_0" index="0" speed="3.65" length="2.34" shape="1374.89,874.02 1373.76,874.92 1372.88,875.05"/>
    </edge>
    <edge id=":1079045413_4" function="internal">
        <lane id=":1079045413_4_0" index="0" speed="3.65" length="2.34" shape="1372.88,875.05 1372.24,874.43 1371.85,873.04"/>
    </edge>
    <edge id=":1079045413_2" function="internal">
        <lane id=":1079045413_2_0" index="0" speed="8.33" length="0.10" shape="1371.88,872.95 1371.85,873.04"/>
    </edge>
    <edge id=":1079045413_3" function="internal">
        <lane id=":1079045413_3_0" index="0" speed="3.65" length="2.34" shape="1371.88,872.95 1373.06,872.12 1373.95,872.04"/>
    </edge>
    <edge id=":1079045413_5" function="internal">
        <lane id=":1079045413_5_0" index="0" speed="3.65" length="2.34" shape="1373.95,872.04 1374.55,872.70 1374.86,874.11"/>
    </edge>
    <edge id=":1079045416_0" function="internal">
        <lane id=":1079045416_0_0" index="0" speed="18.06" length="0.24" shape="1329.58,834.65 1329.61,834.46"/>
        <lane id=":1079045416_0_1" index="1" speed="18.06" length="0.24" shape="1332.72,835.23 1332.77,834.94"/>
    </edge>
    <edge id=":1079045420_0" function="internal">
        <lane id=":1079045420_0_0" index="0" speed="13.89" length="0.40" shape="1146.33,821.91 1146.44,821.96 1146.51,821.99 1146.59,822.01 1146.71,822.04"/>
    </edge>
    <edge id=":1079045443_0" function="internal">
        <lane id=":1079045443_0_0" index="0" speed="13.89" length="0.19" shape="954.11,802.76 954.17,802.77 954.21,802.77 954.25,802.77 954.30,802.77"/>
    </edge>
    <edge id=":1079045455_0" function="internal">
        <lane id=":1079045455_0_0" index="0" speed="8.33" length="3.61" shape="954.36,717.04 953.36,716.45 952.65,716.07 951.99,715.63 951.11,714.88"/>
        <lane id=":1079045455_0_1" index="1" speed="8.33" length="3.61" shape="956.08,714.34 955.22,713.84 954.62,713.53 954.05,713.18 953.30,712.55"/>
    </edge>
    <edge id=":1079045459_0" function="internal">
        <lane id=":1079045459_0_0" index="0" speed="13.89" length="11.09" shape="914.53,857.44 909.19,847.72"/>
        <lane id=":1079045459_0_1" index="1" speed="13.89" length="11.09" shape="917.33,855.90 911.99,846.18"/>
    </edge>
    <edge id=":1079045459_2" function="internal">
        <lane id=":1079045459_2_0" index="0" speed="6.52" length="8.98" shape="917.33,855.90 916.47,853.61 916.54,851.58 917.56,849.81 919.51,848.30"/>
    </edge>
    <edge id=":1079750130_0" function="internal">
        <lane id=":1079750130_0_0" index="0" speed="18.06" length="10.15" shape="2528.29,2702.86 2525.81,2701.28 2524.14,2700.14 2522.40,2699.14 2519.72,2697.97"/>
        <lane id=":1079750130_0_1" index="1" speed="18.06" length="10.15" shape="2529.93,2700.10 2527.31,2698.45 2525.55,2697.26 2523.71,2696.22 2520.89,2694.99"/>
    </edge>
    <edge id=":1079750130_2" function="internal">
        <lane id=":1079750130_2_0" index="0" speed="8.93" length="12.48" shape="2532.03,2696.45 2529.72,2698.32 2526.90,2699.20 2523.57,2699.08 2519.72,2697.97"/>
        <lane id=":1079750130_2_1" index="1" speed="8.41" length="12.48" shape="2531.43,2692.26 2529.10,2694.35 2526.57,2695.51 2523.83,2695.72 2520.89,2694.99"/>
    </edge>
    <edge id=":1079750132_0" function="internal">
        <lane id=":1079750132_0_0" index="0" speed="13.89" length="0.88" shape="1074.34,1557.81 1074.45,1557.89 1074.52,1557.94 1074.60,1557.98 1074.72,1558.03"/>
        <lane id=":1079750132_0_1" index="1" speed="13.89" length="0.88" shape="1072.36,1560.32 1072.66,1560.56 1072.88,1560.71 1073.12,1560.83 1073.48,1560.98"/>
    </edge>
    <edge id=":1079750202_0" function="internal">
        <lane id=":1079750202_0_0" index="0" speed="11.11" length="7.66" shape="1957.51,2002.99 1956.42,1995.45"/>
        <lane id=":1079750202_0_1" index="1" speed="11.11" length="7.66" shape="1960.68,2002.56 1959.58,1994.94"/>
    </edge>
    <edge id=":1079750202_2" function="internal">
        <lane id=":1079750202_2_0" index="0" speed="6.12" length="7.74" shape="1960.68,2002.56 1960.51,1999.82 1960.81,1997.79 1961.59,1996.47 1962.86,1995.88"/>
    </edge>
    <edge id=":1079750202_3" function="internal">
        <lane id=":1079750202_3_0" index="0" speed="5.55" length="6.28" shape="1963.36,1999.04 1961.98,1998.96 1960.89,1998.25 1960.09,1996.92 1959.58,1994.94"/>
    </edge>
    <edge id=":1079750202_4" function="internal">
        <lane id=":1079750202_4_0" index="0" speed="3.65" length="4.67" shape="1963.36,1999.04 1962.05,1998.43 1961.53,1997.71 1961.80,1996.85 1962.86,1995.88"/>
    </edge>
    <edge id=":1079750341_0" function="internal">
        <lane id=":1079750341_0_0" index="0" speed="18.06" length="12.94" shape="2599.51,2721.53 2596.03,2719.89 2593.62,2718.77 2591.11,2718.01 2587.34,2717.46"/>
        <lane id=":1079750341_0_1" index="1" speed="18.06" length="12.94" shape="2600.81,2718.61 2597.34,2716.94 2594.94,2715.77 2592.45,2714.96 2588.69,2714.38"/>
    </edge>
    <edge id=":1079750341_2" function="internal">
        <lane id=":1079750341_2_0" index="0" speed="9.73" length="12.23" shape="2600.81,2718.61 2597.25,2716.77 2594.62,2714.82 2592.91,2712.78 2592.13,2710.63"/>
        <lane id=":1079750341_2_1" index="1" speed="9.29" length="11.11" shape="2600.81,2718.61 2598.74,2717.28 2597.12,2715.32 2595.94,2712.75 2595.21,2709.55"/>
    </edge>
    <edge id=":1079750382_0" function="internal">
        <lane id=":1079750382_0_0" index="0" speed="13.89" length="0.83" shape="2510.09,2673.63 2510.20,2673.68 2510.28,2673.71 2510.36,2673.74 2510.48,2673.76"/>
        <lane id=":1079750382_0_1" index="1" speed="13.89" length="0.83" shape="2508.67,2676.50 2509.01,2676.66 2509.24,2676.75 2509.48,2676.82 2509.84,2676.90"/>
    </edge>
    <edge id=":1079750403_0" function="internal">
        <lane id=":1079750403_0_0" index="0" speed="15.97" length="15.40" shape="1976.54,2266.93 1976.33,2261.99 1976.04,2258.22 1975.41,2255.03 1974.18,2251.84"/>
    </edge>
    <edge id=":1079750403_1" function="internal">
        <lane id=":1079750403_1_0" index="0" speed="5.47" length="10.61" shape="1979.74,2266.79 1979.90,2263.23 1980.81,2261.74 1982.45,2262.32 1984.84,2264.97"/>
    </edge>
    <edge id=":1079750403_2" function="internal">
        <lane id=":1079750403_2_0" index="0" speed="15.97" length="16.34" shape="1977.06,2250.46 1978.90,2253.41 1981.21,2256.00 1984.03,2258.97 1987.40,2263.05"/>
    </edge>
    <edge id=":1079750403_3" function="internal">
        <lane id=":1079750403_3_0" index="0" speed="3.65" length="2.47" shape="1977.06,2250.46 1976.86,2251.89 1976.31,2252.59 1976.18,2252.59"/>
    </edge>
    <edge id=":1079750403_4" function="internal">
        <lane id=":1079750403_4_0" index="0" speed="3.65" length="2.21" shape="1976.18,2252.59 1975.42,2252.58 1974.18,2251.84"/>
    </edge>
    <edge id=":1079750450_0" function="internal">
        <lane id=":1079750450_0_0" index="0" speed="8.45" length="8.49" shape="1070.01,1572.31 1068.48,1572.26 1066.72,1572.81 1064.73,1573.96 1062.51,1575.70"/>
        <lane id=":1079750450_0_1" index="1" speed="9.13" length="9.99" shape="1070.01,1572.31 1066.92,1571.76 1064.29,1571.75 1062.12,1572.25 1060.41,1573.29"/>
    </edge>
    <edge id=":1079750450_2" function="internal">
        <lane id=":1079750450_2_0" index="0" speed="13.89" length="10.24" shape="1070.01,1572.31 1066.89,1571.56 1064.77,1570.92 1062.79,1569.96 1060.10,1568.23"/>
        <lane id=":1079750450_2_1" index="1" speed="13.89" length="10.24" shape="1070.77,1569.20 1067.98,1568.54 1066.07,1567.97 1064.30,1567.12 1061.90,1565.58"/>
    </edge>
    <edge id=":1079750471_0" function="internal">
        <lane id=":1079750471_0_0" index="0" speed="18.06" length="0.61" shape="2576.70,2917.41 2576.72,2917.34 2576.72,2917.29 2576.72,2917.24 2576.72,2917.16"/>
        <lane id=":1079750471_0_1" index="1" speed="18.06" length="0.61" shape="2579.81,2918.19 2579.87,2917.91 2579.90,2917.71 2579.92,2917.52 2579.92,2917.23"/>
    </edge>
    <edge id=":1079750483_0" function="internal">
        <lane id=":1079750483_0_0" index="0" speed="13.89" length="8.84" shape="2073.52,2234.82 2076.96,2243.00"/>
        <lane id=":1079750483_0_1" index="1" speed="13.89" length="8.84" shape="2070.58,2236.08 2074.00,2244.21"/>
    </edge>
    <edge id=":1079750483_2" function="internal">
        <lane id=":1079750483_2_0" index="0" speed="5.97" length="7.66" shape="2070.58,2236.08 2071.45,2238.62 2071.62,2240.61 2071.11,2242.03 2069.92,2242.90"/>
    </edge>
    <edge id=":1079750483_3" function="internal">
        <lane id=":1079750483_3_0" index="0" speed="6.05" length="7.50" shape="2068.78,2239.91 2070.22,2239.75 2071.57,2240.41 2072.83,2241.90 2074.00,2244.21"/>
    </edge>
    <edge id=":1079750483_4" function="internal">
        <lane id=":1079750483_4_0" index="0" speed="3.65" length="4.67" shape="2068.78,2239.91 2070.18,2240.23 2070.84,2240.83 2070.75,2241.72 2069.92,2242.90"/>
    </edge>
    <edge id=":1079750504_0" function="internal">
        <lane id=":1079750504_0_0" index="0" speed="13.89" length="11.90" shape="2300.79,2528.01 2291.10,2520.99"/>
        <lane id=":1079750504_0_1" index="1" speed="13.89" length="11.90" shape="2302.62,2525.38 2293.03,2518.44"/>
    </edge>
    <edge id=":1079750504_2" function="internal">
        <lane id=":1079750504_2_0" index="0" speed="5.86" length="11.35" shape="2302.62,2525.38 2299.63,2522.84 2298.67,2520.80 2299.75,2519.26 2302.86,2518.21"/>
    </edge>
    <edge id=":1079750504_3" function="internal">
        <lane id=":1079750504_3_0" index="0" speed="10.54" length="11.16" shape="2303.47,2521.36 2300.85,2521.55 2298.24,2521.13 2295.64,2520.09 2293.03,2518.44"/>
    </edge>
    <edge id=":1079750504_4" function="internal">
        <lane id=":1079750504_4_0" index="0" speed="3.65" length="4.67" shape="2303.47,2521.36 2302.14,2520.80 2301.60,2520.09 2301.84,2519.23 2302.86,2518.21"/>
    </edge>
    <edge id=":1079750568_0" function="internal">
        <lane id=":1079750568_0_0" index="0" speed="13.89" length="1.26" shape="1096.49,1567.98 1097.69,1567.58"/>
    </edge>
    <edge id=":1079750568_1" function="internal">
        <lane id=":1079750568_1_0" index="0" speed="3.65" length="2.34" shape="1096.49,1567.98 1095.10,1567.60 1094.47,1566.96"/>
    </edge>
    <edge id=":1079750568_4" function="internal">
        <lane id=":1079750568_4_0" index="0" speed="3.65" length="2.34" shape="1094.47,1566.96 1094.60,1566.08 1095.49,1564.94"/>
    </edge>
    <edge id=":1079750568_2" function="internal">
        <lane id=":1079750568_2_0" index="0" speed="13.89" length="1.75" shape="1097.16,1564.41 1095.49,1564.94"/>
    </edge>
    <edge id=":1079750568_3" function="internal">
        <lane id=":1079750568_3_0" index="0" speed="3.66" length="2.35" shape="1097.16,1564.41 1098.48,1565.00 1099.01,1565.73"/>
    </edge>
    <edge id=":1079750568_5" function="internal">
        <lane id=":1079750568_5_0" index="0" speed="3.66" length="2.35" shape="1099.01,1565.73 1098.74,1566.59 1097.69,1567.58"/>
    </edge>
    <edge id=":1079750690_0" function="internal">
        <lane id=":1079750690_0_0" index="0" speed="6.48" length="8.43" shape="1956.38,1995.26 1955.72,1993.43 1954.40,1992.20 1952.44,1991.56 1949.82,1991.52"/>
    </edge>
    <edge id=":1079750690_1" function="internal">
        <lane id=":1079750690_1_0" index="0" speed="8.33" length="13.17" shape="1956.38,1995.26 1954.41,1982.21"/>
        <lane id=":1079750690_1_1" index="1" speed="8.33" length="13.17" shape="1959.54,1994.75 1957.58,1981.75"/>
    </edge>
    <edge id=":1079750690_3" function="internal">
        <lane id=":1079750690_3_0" index="0" speed="6.93" length="10.36" shape="1959.54,1994.75 1959.40,1991.61 1960.09,1989.23 1961.62,1987.62 1963.99,1986.78"/>
    </edge>
    <edge id=":1079750690_4" function="internal">
        <lane id=":1079750690_4_0" index="0" speed="13.20" length="14.78" shape="1964.51,1989.93 1949.82,1991.52"/>
    </edge>
    <edge id=":1079750690_5" function="internal">
        <lane id=":1079750690_5_0" index="0" speed="7.38" length="4.30" shape="1964.51,1989.93 1961.97,1989.77 1960.54,1988.76"/>
    </edge>
    <edge id=":1079750690_6" function="internal">
        <lane id=":1079750690_6_0" index="0" speed="3.65" length="2.34" shape="1964.51,1989.93 1963.20,1989.34 1962.67,1988.62"/>
    </edge>
    <edge id=":1079750690_10" function="internal">
        <lane id=":1079750690_10_0" index="0" speed="7.38" length="7.79" shape="1960.54,1988.76 1959.97,1988.35 1958.50,1985.68 1957.58,1981.75"/>
    </edge>
    <edge id=":1079750690_11" function="internal">
        <lane id=":1079750690_11_0" index="0" speed="3.65" length="2.34" shape="1962.67,1988.62 1962.94,1987.76 1963.99,1986.78"/>
    </edge>
    <edge id=":1079750690_7" function="internal">
        <lane id=":1079750690_7_0" index="0" speed="6.39" length="9.04" shape="1949.55,1988.33 1951.98,1987.77 1953.60,1986.56 1954.41,1984.70 1954.41,1982.21"/>
    </edge>
    <edge id=":1079750690_8" function="internal">
        <lane id=":1079750690_8_0" index="0" speed="13.20" length="14.53" shape="1949.55,1988.33 1963.99,1986.78"/>
    </edge>
    <edge id=":1079750690_9" function="internal">
        <lane id=":1079750690_9_0" index="0" speed="3.65" length="2.34" shape="1949.55,1988.33 1950.81,1989.03 1951.28,1989.79"/>
    </edge>
    <edge id=":1079750690_12" function="internal">
        <lane id=":1079750690_12_0" index="0" speed="3.65" length="2.34" shape="1951.28,1989.79 1950.95,1990.62 1949.82,1991.52"/>
    </edge>
    <edge id=":1079750725_0" function="internal">
        <lane id=":1079750725_0_0" index="0" speed="13.89" length="3.60" shape="2154.00,2398.11 2153.05,2397.43 2152.39,2397.00 2151.77,2396.51 2150.96,2395.69"/>
        <lane id=":1079750725_0_1" index="1" speed="13.89" length="3.60" shape="2155.94,2395.56 2155.13,2395.00 2154.56,2394.64 2154.02,2394.23 2153.33,2393.54"/>
    </edge>
    <edge id=":1079750773_0" function="internal">
        <lane id=":1079750773_0_0" index="0" speed="14.35" length="10.62" shape="1993.19,2275.19 1993.87,2278.07 1994.25,2280.14 1995.04,2281.96 1996.92,2284.08"/>
        <lane id=":1079750773_0_1" index="1" speed="18.06" length="10.62" shape="1990.13,2276.13 1991.15,2279.33 1991.99,2281.48 1993.04,2283.54 1994.69,2286.48"/>
    </edge>
    <edge id=":1079750773_2" function="internal">
        <lane id=":1079750773_2_0" index="0" speed="13.13" length="10.89" shape="1986.95,2279.41 1990.25,2279.87 1992.47,2280.57 1994.42,2281.86 1996.92,2284.08"/>
        <lane id=":1079750773_2_1" index="1" speed="7.46" length="10.89" shape="1985.96,2282.70 1988.60,2282.24 1990.93,2282.72 1992.96,2284.13 1994.69,2286.48"/>
    </edge>
    <edge id=":1079750775_0" function="internal">
        <lane id=":1079750775_0_0" index="0" speed="15.97" length="9.21" shape="2515.68,2695.37 2513.90,2693.45 2512.22,2692.66 2510.30,2692.11 2507.84,2690.90"/>
        <lane id=":1079750775_0_1" index="1" speed="15.97" length="10.44" shape="2515.68,2695.37 2513.97,2692.78 2512.75,2691.00 2511.28,2689.48 2508.78,2687.70"/>
    </edge>
    <edge id=":1079750775_2" function="internal">
        <lane id=":1079750775_2_0" index="0" speed="9.99" length="10.45" shape="2515.68,2695.37 2513.78,2692.31 2512.58,2689.59 2512.09,2687.22 2512.29,2685.19"/>
        <lane id=":1079750775_2_1" index="1" speed="7.83" length="10.45" shape="2518.34,2693.51 2516.59,2691.76 2515.58,2689.70 2515.31,2687.33 2515.79,2684.66"/>
    </edge>