<connections>
	<connection from="423632259_1870384827_4940692941" to="423632259_4940692941_1204288473" />
	<connection from="4227209_96050956_25182815" to="4227158_25182815_25182821" />
	<connection from="4227209_96050956_25182815" to="4227209_25182815_96050956" />
	<connection from="334368566_3414826895_3414826896" to="176336376_3414826896_1699777802" />
	<connection from="165636046_1868723931_25240089" to="165636046_25240089_1868723931" />
	<connection from="165636046_1868723931_25240089" to="166009791_25240089_21915639" />
	<connection from="503783376_4940452736_4940452735" to="503783376_4940452735_4940452736" />
	<connection from="503783376_4940452736_4940452735" to="93137558_4940452735_4940452728" />
	<connection from="4230117_25185452_25185994" to="4230117_25185994_25185452" />
	<connection from="220547252_2104742674_1704201261" to="690914532_1704201261_6482565680" />
	<connection from="220547252_2104742674_1704201261" to="220547252_1704201261_2104742674" />
	<connection from="166643408_25195725_6363741444" to="166643408_6363741444_25195725" />
	<connection from="166643408_25195725_6363741444" to="176531067_6363741444_4011267551" />
	<connection from="503434383_1696714161_25201047" to="503434383_25201047_1696714161" />
	<connection from="503434383_1696714161_25201047" to="155085109_25201047_456295779" />
	<connection from="686878369_251721708_821248627" to="686878369_821248627_251721708" />
	<connection from="686878369_251721708_821248627" to="686878366_821248627_252421665" />
	<connection from="929856547_29457984_8623016757" to="929856547_8623016757_29457984" />
	<connection from="929856547_29457984_8623016757" to="176760117_8623016757_4940452748" />
	<connection from="952419573_1866510573_1866510556" to="952419572_1866510556_1866510585" />
	<connection from="176477342_25239325_21912089" to="315524778_21912089_21913657" />
	<connection from="176477342_25239325_21912089" to="4097656_21912089_21912099" />
	<connection from="80378486_1347559127_1866510554" to="804900033_1866510554_1347559126" />
	<connection from="80378486_1347559127_1866510554" to="176082026_1866510554_1866510564" />
	<connection from="92627414_1074584798_254516782" to="503550463_254516782_1704462806" />
	<connection from="4097656_21912089_21912099" to="157719652_21912099_21915639" />
	<connection from="4097656_21912089_21912099" to="157719647_21912099_2104788829" />
	<connection from="4097656_21912089_21912099" to="4229577_21912099_25239389" />
	<connection from="4097656_21912089_21912099" to="4097656_21912099_21912089" />
	<connection from="8352246_1347551348_25195517" to="159170479_25195517_25193806" />
	<connection from="8352246_1347551348_25195517" to="8352246_25195517_252419005" />
	<connection from="503753416_4940249420_1868736596" to="176395399_1868736596_1869347236" />
	<connection from="503753416_4940249420_1868736596" to="176974531_1868736596_1869347242" />
	<connection from="220547251_4937755899_4937755916" to="220547251_4937755916_4937755899" />
	<connection from="220547251_4937755899_4937755916" to="503475656_4937755916_4937755917" />
	<connection from="220547251_4937755899_4937755916" to="503475657_4937755916_2225788675" />
	<connection from="503638814_1352289907_21928938" to="4230081_21928938_1079751357" />
	<connection from="503638814_1352289907_21928938" to="503638814_21928938_1352289907" />
	<connection from="92627427_250259426_279443200" to="92627427_279443200_250259426" />
	<connection from="92627427_250259426_279443200" to="92627418_279443200_279443211" />
	<connection from="851792663_3419670594_1770577842" to="165636065_1770577842_21923561" />
	<connection from="851792663_3419670594_1770577842" to="851792663_1770577842_3419670594" />
	<connection from="177045628_1347559127_1079045455" to="93091312_1079045455_1690213023" />
	<connection from="463430038_4329992817_4329980643" to="1001561437_4329980643_25201018" />
	<connection from="200507331_6482567699_25177730" to="261740025_25177730_25177718" />
	<connection from="200507331_6482567699_25177730" to="200507331_25177730_6482567699" />
	<connection from="200507331_6482567699_25177730" to="158189819_25177730_25177737" />
	<connection from="158215184_25177245_1869239786" to="503462475_1869239786_2104729494" />
	<connection from="158215184_25177245_1869239786" to="158215184_1869239786_25177245" />
	<connection from="4229893_25192169_25192010" to="168681960_25192010_6485592104" />
	<connection from="176577460_937988403_25177478" to="158189815_25177478_25177449" />
	<connection from="176577460_937988403_25177478" to="176577460_25177478_937988403" />
	<connection from="792884355_25212849_25212882" to="24668161_25212882_268121651" />
	<connection from="792884355_25212849_25212882" to="24668173_25212882_25186124" />
	<connection from="573021665_25181806_252539040" to="573021665_252539040_25181806" />
	<connection from="165636031_25181935_1800775440" to="165636031_1800775440_25181935" />
	<connection from="165636031_25181935_1800775440" to="503813534_1800775440_1712696757" />
	<connection from="166399479_25193350_6444966511" to="4227273_6444966511_25193390" />
	<connection from="166399479_25193350_6444966511" to="161882794_6444966511_21914339" />
	<connection from="166009793_1696714161_25201044" to="166009793_25201044_1696714161" />
	<connection from="166009793_1696714161_25201044" to="851792657_25201044_25201041" />
	<connection from="167625739_25177834_25183872" to="158215192_25183872_1704462994" />
	<connection from="167625739_25177834_25183872" to="167625739_25183872_25177834" />
	<connection from="176576014_252458682_1204288486" to="176576014_1204288486_252458682" />
	<connection from="176576014_252458682_1204288486" to="157719661_1204288486_252474750" />
	<connection from="503475656_4937755916_4937755917" to="503475656_4937755917_4937755916" />
	<connection from="694608613_4937556547_2104842206" to="694608615_2104842206_25182046" />
	<connection from="8352246_263075529_25194413" to="8352246_25194413_1347551348" />
	<connection from="8352246_263075529_25194413" to="120062665_25194413_1347117302" />
	<connection from="8352246_263075529_25194413" to="159170522_25194413_25193802" />
	<connection from="94399437_252419723_252420413" to="94399590_252420413_25210891" />
	<connection from="39838824_258072016_258071984" to="788120420_258071984_21917586" />
	<connection from="39838824_258072016_258071984" to="656826921_258071984_6152414422" />
	<connection from="4229328_25198559_25238728" to="166149556_25238728_25238772" />
	<connection from="4229328_25198559_25238728" to="166009795_25238728_25238712" />
	<connection from="92627405_252418705_273246003" to="92627405_273246003_252418705" />
	<connection from="92627405_252418705_273246003" to="503783368_273246003_21918825" />
	<connection from="4230007_6485591888_21914666" to="4230007_21914666_6485591888" />
	<connection from="4230007_6485591888_21914666" to="568187257_21914666_1736930368" />
	<connection from="39839529_1737389117_1079045413" to="39839529_1079045413_1737389117" />
	<connection from="39839529_1737389117_1079045413" to="766768152_1079045413_25191634" />
	<connection from="4229326_25238669_25198656" to="4229326_25198656_25238669" />
	<connection from="4229326_25238669_25198656" to="166399496_25198656_1868767786" />
	<connection from="24672725_21924057_268167599" to="24672725_268167599_21924057" />
	<connection from="731585432_25177167_6851350853" to="731585433_6851350853_4940249420" />
	<connection from="177045626_25199254_25198803" to="166399498_25198803_25198791" />
	<connection from="177045626_25199254_25198803" to="67923338_25198803_25210837" />
	<connection from="176333307_21918402_21918450" to="165636047_21918450_1868723951" />
	<connection from="176333307_21918402_21918450" to="176333307_21918450_21918402" />
	<connection from="503434401_1712696757_25193617" to="165636038_25193617_25193709" />
	<connection from="952419569_1866510534_6340759098" to="952419570_6340759098_1866510571" />
	<connection from="166009792_21917586_252458631" to="166009792_252458631_21917586" />
	<connection from="166009792_21917586_252458631" to="166009792_252458631_21917628" />
	<connection from="166009792_21917586_252458631" to="157719649_252458631_252458680" />
	<connection from="176510129_1870233792_1870233795" to="4229329_1870233795_25197985" />
	<connection from="200499288_267985353_6485591888" to="4230007_6485591888_21914666" />
	<connection from="503783375_21919238_4940452734" to="503783375_4940452734_21919238" />
	<connection from="503783375_21919238_4940452734" to="503783373_4940452734_4940452728" />
	<connection from="4230105_1417930881_1868736651" to="176334445_1868736651_1868736765" />
	<connection from="4230105_1417930881_1868736651" to="4230105_1868736651_1417930881" />
	<connection from="120062663_1347117299_1870233784" to="120062663_1870233784_1347551333" />
	<connection from="166558481_25191904_25192169" to="161882793_25192169_1799099566" />
	<connection from="166558481_25191904_25192169" to="4229893_25192169_25192010" />
	<connection from="159170458_25195773_25195725" to="854880222_25195725_252362112" />
	<connection from="159170458_25195773_25195725" to="166643408_25195725_6363741444" />
	<connection from="159170458_25195773_25195725" to="159170458_25195725_25195773" />
	<connection from="507581429_4970587864_4970587861" to="507581429_4970587861_4970587876" />
	<connection from="166399501_1736930370_1737114648" to="166399501_1737114648_1736930370" />
	<connection from="166399501_1736930370_1737114648" to="568187257_1737114648_1736930368" />
	<connection from="315524778_21913657_21912089" to="315524778_21912089_21913657" />
	<connection from="315524778_21913657_21912089" to="4097656_21912089_21912099" />
	<connection from="166624050_1720684257_1737366176" to="166624050_1737366176_1720684257" />
	<connection from="166624050_1720684257_1737366176" to="254596486_1737366176_252387589" />
	<connection from="93137576_1079751501_1079750202" to="503462464_1079750202_1079750690" />
	<connection from="93137576_1079751501_1079750202" to="93137576_1079750202_1079751501" />
	<connection from="503462466_1079751204_1079751542" to="50501898_1079751542_25242946" />
	<connection from="503462466_1079751204_1079751542" to="503462466_1079751542_1079750725" />
	<connection from="788197746_25198472_1265685487" to="788197746_1265685487_1870233792" />
	<connection from="120113158_1347551318_1347551348" to="8352246_1347551348_25195517" />
	<connection from="92627406_25177282_25177341" to="158215205_25177341_1074584863" />
	<connection from="92627406_25177282_25177341" to="92627406_25177341_25177282" />
	<connection from="434567309_272637923_21914841" to="166399501_21914841_1736930370" />
	<connection from="434567309_272637923_21914841" to="4230011_21914841_21917445" />
	<connection from="434567309_272637923_21914841" to="434567309_21914841_272637923" />
	<connection from="181479771_1352205619_251721708" to="686878369_251721708_821248627" />
	<connection from="181479771_1352205619_251721708" to="181479771_251721708_1352205619" />
	<connection from="181479771_1352205619_251721708" to="159170498_251721708_826168640" />
	<connection from="93091319_1079045459_1079045346" to="503813544_1079045346_1872357142" />
	<connection from="93137566_252387599_252387589" to="157719644_252387589_1690130866" />
	<connection from="176531067_6363741444_4011267551" to="201011053_4011267551_1869347236" />
	<connection from="334773233_25185552_1790048638" to="167625756_1790048638_1790048628" />
	<connection from="334773233_25185552_1790048638" to="334773233_1790048638_25185552" />
	<connection from="143536261_1079750450_1570717300" to="143536279_1570717300_1265685487" />
	<connection from="168104483_1868752079_1868752101" to="176336113_1868752101_1868752067" />
	<connection from="168104483_1868752079_1868752101" to="168104483_1868752101_21917628" />
	<connection from="503801215_1870384824_1870384826" to="423632259_1870384826_1870384827" />
	<connection from="157719664_4317081676_258072009" to="157719664_258072009_21915639" />
	<connection from="157719664_4317081676_258072009" to="39838265_258072009_258072011" />
	<connection from="157719641_252474584_1699777780" to="157719641_1699777780_252474584" />
	<connection from="157719641_252474584_1699777780" to="157719662_1699777780_1699777828" />
	<connection from="181479773_3419409376_1784106966" to="181479774_1784106966_252362102" />
	<connection from="4229327_25197962_25238772" to="166149556_25238772_25238728" />
	<connection from="4229327_25197962_25238772" to="4229327_25238772_25197962" />
	<connection from="176334444_1868736612_4940249424" to="503753418_4940249424_4937466461" />
	<connection from="981971425_1868736765_1864130082" to="981971425_1864130082_1868736765" />
	<connection from="981971425_1868736765_1864130082" to="4230113_1864130082_21921299" />
	<connection from="214636589_2241375226_25191729" to="214636589_25191729_2241375226" />
	<connection from="214636589_2241375226_25191729" to="503475643_25191729_1737389160" />
	<connection from="4229536_2422123078_1720683756" to="160004391_1720683756_1720683797" />
	<connection from="4229536_2422123078_1720683756" to="4229536_1720683756_2422123078" />
	<connection from="214635117_2750638811_252470578" to="214635117_252470578_2750638811" />
	<connection from="214635117_2750638811_252470578" to="158215180_252470578_5504778603" />
	<connection from="766768155_272958770_21914339" to="353889145_21914339_1738360266" />
	<connection from="766768155_272958770_21914339" to="165636064_21914339_1738360276" />
	<connection from="158215192_25183872_1704462994" to="158215192_1704462994_25183872" />
	<connection from="8135845_25198559_25198656" to="4229326_25198656_25238669" />
	<connection from="8135845_25198559_25198656" to="166399496_25198656_1868767786" />
	<connection from="854880222_252362112_25195725" to="854880222_25195725_252362112" />
	<connection from="854880222_252362112_25195725" to="166643408_25195725_6363741444" />
	<connection from="854880222_252362112_25195725" to="159170458_25195725_25195773" />
	<connection from="176674530_25239343_25239346" to="4229539_25239346_25239325" />
	<connection from="176674530_25239343_25239346" to="176674530_25239346_25239343" />
	<connection from="176674530_25239343_25239346" to="176321050_25239346_1870233759" />
	<connection from="851792659_1074584855_252356771" to="851792659_252356771_1074584855" />
	<connection from="851792659_1074584855_252356771" to="92627433_252356771_25202446" />
	<connection from="4229243_1074584672_4453073043" to="4229243_4453073043_1074584672" />
	<connection from="4229243_1074584672_4453073043" to="448286547_4453073043_3646650938" />
	<connection from="176337638_1868767795_1868767812" to="176337642_1868767812_1868767791" />
	<connection from="200493424_1074584878_25177245" to="503462474_25177245_1074584798" />
	<connection from="200493424_1074584878_25177245" to="158215184_25177245_1869239786" />
	<connection from="503550472_1868767795_25198791" to="68814581_25198791_826809711" />
	<connection from="503550472_1868767795_25198791" to="503550472_25198791_1868767795" />
	<connection from="168104494_252416725_1074584934" to="92627421_1074584934_252416726" />
	<connection from="166856356_25185541_1782795806" to="166856356_1782795806_25185541" />
	<connection from="166856356_25185541_1782795806" to="166856355_1782795806_25185529" />
	<connection from="278143566_2825675756_2825675776" to="158189827_2825675776_2825675780" />
	<connection from="278143566_2825675756_2825675776" to="278143566_2825675776_2825675756" />
	<connection from="92627405_273246003_252418705" to="254596487_252418705_267985520" />
	<connection from="92627405_273246003_252418705" to="92627405_252418705_273246003" />
	<connection from="503475657_2225788675_4937755916" to="220547251_4937755916_4937755899" />
	<connection from="503475657_2225788675_4937755916" to="503475656_4937755916_4937755917" />
	<connection from="503475657_2225788675_4937755916" to="503475657_4937755916_2225788675" />
	<connection from="166009792_3883559329_21917628" to="166009792_21917628_3883559329" />
	<connection from="166009792_3883559329_21917628" to="166009792_21917628_252458631" />
	<connection from="4229298_1868723951_21918450" to="165636047_21918450_1868723951" />
	<connection from="4229298_1868723951_21918450" to="176333307_21918450_21918402" />
	<connection from="166399479_1868404468_25193333" to="161882796_25193333_1868404463" />
	<connection from="166399479_1868404468_25193333" to="166399479_25193333_25193350" />
	<connection from="158215191_25177469_1869239782" to="158215191_1869239782_25177469" />
	<connection from="158215191_25177469_1869239782" to="176390492_1869239782_1869239786" />
	<connection from="165636065_21923561_1770577842" to="165636065_1770577842_21923561" />
	<connection from="165636065_21923561_1770577842" to="851792663_1770577842_3419670594" />
	<connection from="78147639_25191440_25191448" to="158007908_25191448_25191463" />
	<connection from="78147639_25191440_25191448" to="78147639_25191448_25191440" />
	<connection from="850261592_1868404463_2685548018" to="262902068_2685548018_2680832199" />
	<connection from="176257197_25238111_4939779371" to="176257197_4939779371_1868008127" />
	<connection from="176257197_25238111_4939779371" to="503702169_4939779371_1074584775" />
	<connection from="503813534_1800775440_1712696757" to="503813534_1712696757_1800775440" />
	<connection from="503813534_1800775440_1712696757" to="503434401_1712696757_25193617" />
	<connection from="503813534_1800775440_1712696757" to="503447059_1712696757_1712696759" />
	<connection from="201011053_4011267551_1869347236" to="944079968_1869347236_8740887117" />
	<connection from="804900035_25177422_25238111" to="4229900_25238111_25204264" />
	<connection from="804900035_25177422_25238111" to="176257197_25238111_4939779371" />
	<connection from="158215192_1704462994_25183872" to="158215192_25183872_1704462994" />
	<connection from="158215192_1704462994_25183872" to="167625739_25183872_25177834" />
	<connection from="200493424_1074584798_2750638804" to="200493424_2750638804_1074584878" />
	<connection from="159170465_25210837_25210879" to="94399455_25210879_25210887" />
	<connection from="159170465_25210837_25210879" to="159170465_25210879_25210837" />
	<connection from="503813547_1866423016_1866422978" to="694608616_1866422978_4937556547" />
	<connection from="503813547_1866423016_1866422978" to="176086162_1866422978_4937556546" />
	<connection from="95449780_25238698_25238669" to="4229326_25238669_25198656" />
	<connection from="95449780_25238698_25238669" to="95449780_25238669_25238698" />
	<connection from="161733902_273245248_21918939" to="503462465_21918939_21919006" />
	<connection from="92627436_1074584736_2626888293" to="257071677_2626888293_2626888282" />
	<connection from="92627436_1074584736_2626888293" to="92627436_2626888293_252356770" />
	<connection from="92627436_1074584736_2626888293" to="92627436_2626888293_1074584736" />
	<connection from="176576014_1204288486_252458682" to="176576014_252458682_1204288486" />
	<connection from="176576014_1204288486_252458682" to="164338238_252458682_3416090602" />
	<connection from="176576014_1204288486_252458682" to="164338241_252458682_1761115482" />
	<connection from="50501898_1079751542_25242946" to="93137621_25242946_2189614154" />
	<connection from="278143566_2825675776_2825675756" to="446530365_2825675756_25177718" />
	<connection from="278143566_2825675776_2825675756" to="278143566_2825675756_2825675776" />
	<connection from="4229308_1720684257_21912962" to="161775592_21912962_1204288376" />
	<connection from="690914542_6482567699_2825675748" to="690914542_2825675748_6482567699" />
	<connection from="690914542_6482567699_2825675748" to="501241475_2825675748_2225788751" />
	<connection from="423632259_1870384826_1870384827" to="423632259_1870384827_4940692941" />
	<connection from="503434378_1868723954_1868723938" to="944079970_1868723938_258071970" />
	<connection from="503434378_1868723954_1868723938" to="503434396_1868723938_1868723931" />
	<connection from="503475642_1737389160_25193217" to="161775593_25193217_21914340" />
	<connection from="503475642_1737389160_25193217" to="503475642_25193217_1737389160" />
	<connection from="176336377_1868754496_252474588" to="157719669_252474588_252474589" />
	<connection from="176336377_1868754496_252474588" to="176336377_252474588_1868754496" />
	<connection from="35092475_1720684257_21913657" to="35092475_21913657_1720684257" />
	<connection from="35092475_1720684257_21913657" to="315524778_21913657_21912089" />
	<connection from="168890950_25181814_25181806" to="573021665_25181806_252539040" />
	<connection from="168890950_25181814_25181806" to="168890950_25181806_25181814" />
	<connection from="120113156_1347551322_1347117303" to="120113156_1347117303_1347551322" />
	<connection from="120113156_1347551322_1347117303" to="120062666_1347117303_1347117271" />
	<connection from="4227277_6480060598_4940692951" to="690653921_4940692951_2109529537" />
	<connection from="155085108_25202525_25202446" to="92627433_25202446_252356771" />
	<connection from="155085108_25202525_25202446" to="155085108_25202446_25202525" />
	<connection from="1001561437_4329980643_25201018" to="851792658_25201018_25201021" />
	<connection from="93091311_1868280239_1347559127" to="177045628_1347559127_1079045455" />
	<connection from="93091311_1868280239_1347559127" to="80378486_1347559127_1866510554" />
	<connection from="4227253_4058432473_4058432482" to="850261591_4058432482_25195716" />
	<connection from="167625742_25243242_1790048628" to="167625756_1790048628_1790048630" />
	<connection from="167625742_25243242_1790048628" to="167625742_1790048628_25243242" />
	<connection from="161880707_25193377_272958770" to="766768155_272958770_21914339" />
	<connection from="176684623_1878844644_1871618752" to="176684623_1871618752_1878844644" />
	<connection from="128273232_1352289853_21923561" to="165636065_21923561_1770577842" />
	<connection from="128273232_1352289853_21923561" to="128273232_21923561_1352289853" />
	<connection from="128273232_1352289853_21923561" to="165636065_21923561_1352289907" />
	<connection from="161775593_21914340_25193217" to="161775593_25193217_21914340" />
	<connection from="161775593_21914340_25193217" to="503475642_25193217_1737389160" />
	<connection from="503475647_8739455926_2466427832" to="503475646_2466427832_8047787744" />
	<connection from="294081873_268125181_268125184" to="294081873_268125184_268125181" />
	<connection from="200496088_2104742674_1704201287" to="158189827_1704201287_2825675776" />
	<connection from="503813540_1204288473_25191904" to="166558481_25191904_25192169" />
	<connection from="503813540_1204288473_25191904" to="4227230_25191904_1573123086" />
	<connection from="157719692_1699777802_252458680" to="157719649_252458680_252458682" />
	<connection from="423652239_2225778239_1869953327" to="503462471_1869953327_2225778261" />
	<connection from="503471323_1347559138_1347559089" to="503471323_1347559089_1347559137" />
	<connection from="94400151_1096587867_1096586801" to="94399927_1096586801_25210895" />
	<connection from="94400151_1096587867_1096586801" to="503434360_1096586801_1096593805" />
	<connection from="176336114_1868752085_3883559314" to="176321050_3883559314_1870233759" />
	<connection from="176336114_1868752085_3883559314" to="176336114_3883559314_1868752079" />
	<connection from="169297863_25191348_6696261618" to="169297863_6696261618_25191348" />
	<connection from="169297863_25191348_6696261618" to="712182870_6696261618_25191508" />
	<connection from="176336113_1868752067_1868752101" to="176336113_1868752101_1868752067" />
	<connection from="176336113_1868752067_1868752101" to="168104483_1868752101_21917628" />
	<connection from="851792660_3883559329_1079750568" to="851792660_1079750568_3883559329" />
	<connection from="851792660_3883559329_1079750568" to="788197747_1079750568_25197679" />
	<connection from="120062663_1870233784_1347551333" to="120113155_1347551333_1347551314" />
	<connection from="568187257_1737114648_1736930368" to="568187257_1736930368_1737114648" />
	<connection from="568187257_1737114648_1736930368" to="568187257_1736930368_21914666" />
	<connection from="568187257_1737114648_1736930368" to="161748259_1736930368_21914809" />
	<connection from="167625739_25183872_25177834" to="167625739_25177834_25183872" />
	<connection from="167625739_25183872_25177834" to="39839531_25177834_6482565665" />
	<connection from="164338247_1759785866_1789813053" to="157719645_1789813053_1079751575" />
	<connection from="164338247_1759785866_1789813053" to="164338247_1789813053_1759785866" />
	<connection from="164338247_1759785866_1789813053" to="157719645_1789813053_21917445" />
	<connection from="261740025_25177718_25177730" to="261740025_25177730_25177718" />
	<connection from="261740025_25177718_25177730" to="200507331_25177730_6482567699" />
	<connection from="261740025_25177718_25177730" to="158189819_25177730_25177737" />
	<connection from="39839531_25177834_6482565665" to="39839531_6482565665_25177478" />
	<connection from="94399877_1835348082_25210887" to="94399600_25210887_1096590186" />
	<connection from="94399877_1835348082_25210887" to="94399455_25210887_25210879" />
	<connection from="93207288_1080509803_21930608" to="93207287_21930608_1080509837" />
	<connection from="93207288_1080509803_21930608" to="353889383_21930608_1080509817" />
	<connection from="788120418_25212839_25212849" to="792884355_25212849_25212882" />
	<connection from="503475642_25193217_1737389160" to="503475642_1737389160_25193217" />
	<connection from="503475642_25193217_1737389160" to="503475643_1737389160_25191729" />
	<connection from="503475642_25193217_1737389160" to="503475641_1737389160_6485591968" />
	<connection from="166399489_252421665_25199254" to="68814587_25199254_826809711" />
	<connection from="166399489_252421665_25199254" to="177045626_25199254_25198803" />
	<connection from="503447058_1712696759_1866423016" to="176086161_1866423016_25193617" />
	<connection from="503447058_1712696759_1866423016" to="503813547_1866423016_1866422978" />
	<connection from="35092475_21913657_1720684257" to="166624050_1720684257_1737366176" />
	<connection from="166149542_252419723_25197949" to="4229325_25197949_25197962" />
	<connection from="166149542_252419723_25197949" to="166149542_25197949_252419723" />
	<connection from="25103757_273245503_273246000" to="156242241_273246000_21918825" />
	<connection from="165636038_25193617_25193709" to="165636038_25193709_1870384826" />
	<connection from="165636038_25193617_25193709" to="4227198_25193709_25194146" />
	<connection from="448285793_3646650938_4453063924" to="503090215_4453063924_1074585031" />
	<connection from="68814581_25198791_826809711" to="177045627_826809711_3883559267" />
	<connection from="182694289_25191494_25191502" to="4227233_25191502_25191508" />
	<connection from="182694289_25191494_25191502" to="182694289_25191502_25191494" />
	<connection from="503783375_4940452734_21919238" to="503783375_21919238_4940452734" />
	<connection from="503783375_4940452734_21919238" to="93137560_21919238_1079751567" />
	<connection from="214636589_25191729_2241375226" to="214636589_2241375226_25191729" />
	<connection from="214636589_25191729_2241375226" to="766768153_2241375226_25191634" />
	<connection from="4227212_25182446_25182457" to="4227212_25182457_2153445075" />
	<connection from="157719664_258072009_21915639" to="166009791_21915639_25240089" />
	<connection from="157719664_258072009_21915639" to="157719652_21915639_21912099" />
	<connection from="159170452_25182046_1712696759" to="503447059_1712696759_1712696757" />
	<connection from="503475664_2225788686_4937756537" to="503475662_4937756537_1704201254" />
	<connection from="503475664_2225788686_4937756537" to="503475664_4937756537_2225788686" />
	<connection from="353889390_1868736697_3646650938" to="448285793_3646650938_4453063924" />
	<connection from="353889390_1868736697_3646650938" to="448286547_3646650938_4453073043" />
	<connection from="353889390_1868736697_3646650938" to="353889390_3646650938_1868736697" />
	<connection from="182700002_1079750946_1079750942" to="182700002_1079750942_1079750202" />
	<connection from="182700002_1079750946_1079750942" to="93137589_1079750942_1079750483" />
	<connection from="4227214_25181793_25181806" to="573021665_25181806_252539040" />
	<connection from="4227214_25181793_25181806" to="168890950_25181806_25181814" />
	<connection from="4227208_2737814240_25181935" to="4227208_25181935_2737814240" />
	<connection from="4227208_2737814240_25181935" to="165636031_25181935_1800775440" />
	<connection from="166399497_257158605_821248627" to="686878369_821248627_251721708" />
	<connection from="166399497_257158605_821248627" to="686878366_821248627_252421665" />
	<connection from="503783373_4940452734_4940452728" to="93137558_4940452728_4940452735" />
	<connection from="503783373_4940452734_4940452728" to="503783373_4940452728_4940452734" />
	<connection from="503633031_1079751174_1204288316" to="850261613_1204288316_25242946" />
	<connection from="568187257_1736930368_1737114648" to="166399501_1737114648_1736930370" />
	<connection from="568187257_1736930368_1737114648" to="568187257_1737114648_1736930368" />
	<connection from="851792659_252356771_1074584855" to="166399486_1074584855_252356770" />
	<connection from="851792659_252356771_1074584855" to="851792659_1074584855_252356771" />
	<connection from="158215205_25177341_1074584863" to="158215205_1074584863_25177341" />
	<connection from="167625756_25185687_1790048638" to="167625756_1790048638_1790048628" />
	<connection from="167625756_25185687_1790048638" to="334773233_1790048638_25185552" />
	<connection from="353889276_273245503_273245506" to="353889276_273245506_267985353" />
	<connection from="92627427_279443200_250259426" to="92627427_250259426_279443200" />
	<connection from="92627427_279443200_250259426" to="157719653_250259426_250259418" />