<connections>
	<connection from="30806884_21487169_21487170_21487169" to="30806884_21487169_21487170_281787658" />
	<connection from="30806884_21487169_21487170_281787658" to="30806884_21487169_21487170_27011229" />
	<connection from="25185001_26785753_26704584_26785753" to="25185001_26785753_26704584_26785752" />
	<connection from="25185001_26785753_26704584_26785752" to="25185001_26785753_26704584_21487147" />
	<connection from="4397063_21487174_26873453_21487174" to="4397063_21487174_26873453_27011842" />
	<connection from="4397063_21487174_26873453_27011842" to="4397063_21487174_26873453_27011256" />
	<connection from="4397063_21487174_26873453_27011256" to="4397063_21487174_26873453_26873451" />
	<connection from="4397063_21487174_26873453_26873451" to="4397063_21487174_26873453_406585016" />
	<connection from="4397063_21487174_26873453_406585016" to="4397063_21487174_26873453_414959615" />
	<connection from="4397063_21487174_26873453_414959615" to="4397063_21487174_26873453_82654384" />
	<connection from="4397063_21487174_26873453_82654384" to="4397063_21487174_26873453_564738832" />
	<connection from="4397063_21487174_26873453_564738832" to="4397063_21487174_26873453_249734328" />
	<connection from="36337926_415838100_21487145_415838100" to="36337926_415838100_21487145_26938203" />
	<connection from="4400423_21487142_26875018_21487142" to="4400423_21487142_26875018_26938222" />
	<connection from="4400423_21487142_26875018_26938222" to="4400423_21487142_26875018_251150123" />
	<connection from="4400423_21487142_26875018_251150123" to="4400423_21487142_26875018_26938223" />
	<connection from="4400423_21487142_26875018_26938223" to="4400423_21487142_26875018_276365467" />
	<connection from="4400423_21487142_26875018_276365467" to="4400423_21487142_26875018_276365492" />
	<connection from="25185008_21487143_21487142_21487143" to="25185008_21487143_21487142_26938211" />
	<connection from="25185006_21487146_21487168_21487146" to="25185006_21487146_21487168_281787666" />
	<connection from="25185006_21487146_21487168_281787666" to="25185006_21487146_21487168_281787664" />
	<connection from="25185005_21487148_21487144_21487148" to="25185005_21487148_21487144_251150120" />
	<connection from="25185005_21487148_21487144_251150120" to="25185005_21487148_21487144_26938214" />
	<connection from="30806886_21487174_21487173_21487174" to="30806886_21487174_21487173_27011806" />
	<connection from="30806886_21487174_21487173_27011806" to="30806886_21487174_21487173_281788931" />
	<connection from="24242895_25661282_25661280_25661282" to="24242895_25661282_25661280_26914395" />
	<connection from="25185002_21487142_26785753_21487142" to="25185002_21487142_26785753_197667550" />
	<connection from="25185002_21487142_26785753_197667550" to="25185002_21487142_26785753_26938221" />
	<connection from="25185002_21487142_26785753_26938221" to="25185002_21487142_26785753_251106773" />
	<connection from="25185007_26704584_21487146_26704584" to="25185007_26704584_21487146_26938208" />
	<connection from="25185007_26704584_21487146_26938208" to="25185007_26704584_21487146_26938209" />
	<connection from="30806885_21487170_299080425_21487170" to="30806885_21487170_299080425_27011237" />
	<connection from="30806885_21487170_299080425_27011237" to="30806885_21487170_299080425_27423744" />
	<connection from="30806885_21487170_299080425_27423744" to="30806885_21487170_299080425_27011241" />
	<connection from="4413638_21487175_21487174_21487175" to="4413638_21487175_21487174_197687090" />
	<connection from="4413638_21487175_21487174_197687090" to="4413638_21487175_21487174_342813080" />
	<connection from="4413638_21487175_21487174_342813080" to="4413638_21487175_21487174_27011231" />
	<connection from="4068038_408194194_423839224_408194194" to="4068038_408194194_423839224_26738489" />
	<connection from="4068038_408194194_423839224_26738489" to="4068038_408194194_423839224_313006383" />
	<connection from="30194726_27011222_21487169_27011222" to="30194726_27011222_21487169_21487172" />
	<connection from="30194726_27011222_21487169_21487172" to="30194726_27011222_21487169_27011227" />
	<connection from="30194726_27011222_21487169_27011227" to="30194726_27011222_21487169_21487171" />
	<connection from="30194726_27011222_21487169_21487171" to="30194726_27011222_21487169_342813077" />
	<connection from="30194726_27011222_21487169_342813077" to="30194726_27011222_21487169_595589819" />
	<connection from="30194726_27011222_21487169_595589819" to="30194726_27011222_21487169_27011225" />
	<connection from="30194726_27011222_21487169_27011225" to="30194726_27011222_21487169_342813075" />
	<connection from="4068038_428788319_408194194_428788319" to="4068038_428788319_408194194_272256206" />
	<connection from="4609243_252864801_252864802_252864801" to="4609243_252864801_252864802_265786533" />
	<connection from="32935479_252864802_21487170_252864802" to="32935479_252864802_21487170_341364279" />
	<connection from="32935479_252864802_21487170_341364279" to="32935479_252864802_21487170_248919692" />
	<connection from="32935479_252864802_21487170_248919692" to="32935479_252864802_21487170_82654385" />
	<connection from="32935479_252864802_21487170_82654385" to="32935479_252864802_21487170_27011308" />
	<connection from="32935479_252864802_21487170_27011308" to="32935479_252864802_21487170_341364277" />
	<connection from="32935479_252864802_21487170_341364277" to="32935479_252864802_21487170_341364270" />
	<connection from="32935479_252864802_21487170_341364270" to="32935479_252864802_21487170_27011305" />
	<connection from="32935479_252864802_21487170_27011305" to="32935479_252864802_21487170_540312558" />
	<connection from="32935479_252864802_21487170_540312558" to="32935479_252864802_21487170_281787656" />
	<connection from="32935479_252864802_21487170_281787656" to="32935479_252864802_21487170_281787657" />
	<connection from="4400154_21487169_21677261_21487169" to="4400154_21487169_21677261_281787660" />
	<connection from="4400154_21487169_21677261_281787660" to="4400154_21487169_21677261_281787659" />
	<connection from="4400154_21487169_21677261_281787659" to="4400154_21487169_21677261_27011219" />
	<connection from="4400154_21487169_21677261_27011219" to="4400154_21487169_21677261_282745683" />
	<connection from="4400154_21487169_21677261_282745683" to="4400154_21487169_21677261_271749621" />
	<connection from="4400154_21487169_21677261_271749621" to="4400154_21487169_21677261_341364267" />
	<connection from="4400154_21487169_21677261_341364267" to="4400154_21487169_21677261_27011311" />
	<connection from="25185003_21487145_21487148_21487145" to="25185003_21487145_21487148_26938215" />
	<connection from="36337926_408194196_408194192_408194196" to="36337926_408194196_408194192_410846037" />
	<connection from="36337926_408194196_408194192_410846037" to="36337926_408194196_408194192_408194217" />
	<connection from="4068038_21487168_251150126_21487168" to="4068038_21487168_251150126_26938204" />
	<connection from="24240250_26703689_21487173_26703689" to="24240250_26703689_21487173_270964315" />
	<connection from="24240250_26703689_21487173_270964315" to="24240250_26703689_21487173_270964430" />
	<connection from="24240250_26703689_21487173_270964430" to="24240250_26703689_21487173_270964434" />
	<connection from="24240250_26703689_21487173_270964434" to="24240250_26703689_21487173_414959598" />
	<connection from="24240250_26703689_21487173_414959598" to="24240250_26703689_21487173_270964435" />
	<connection from="24240250_26703689_21487173_270964435" to="24240250_26703689_21487173_406584997" />
	<connection from="24240250_26703689_21487173_406584997" to="24240250_26703689_21487173_213045012" />
	<connection from="24240250_26703689_21487173_213045012" to="24240250_26703689_21487173_270964379" />
	<connection from="24240250_26703689_21487173_270964379" to="24240250_26703689_21487173_21487178" />
	<connection from="24240250_26703689_21487173_21487178" to="24240250_26703689_21487173_27011259" />
	<connection from="24240250_26870674_26703689_26870674" to="24240250_26870674_26703689_281167110" />
	<connection from="24240250_26870674_26703689_281167110" to="24240250_26870674_26703689_489741699" />
	<connection from="36337926_408194192_428788320_408194192" to="36337926_408194192_428788320_415838099" />
	<connection from="30194724_299080425_21487175_299080425" to="30194724_299080425_21487175_26703663" />
	<connection from="30194724_299080425_21487175_26703663" to="30194724_299080425_21487175_299080426" />
	<connection from="30194724_299080425_21487175_299080426" to="30194724_299080425_21487175_21487176" />
	<connection from="4403977_21487144_26704628_21487144" to="4403977_21487144_26704628_26938213" />
	<connection from="28764302_26873454_26870695_26873454" to="28764302_26873454_26870695_26870692" />
	<connection from="36337926_428788320_415838100_428788320" to="36337926_428788320_415838100_411091943" />
	<connection from="36337926_428788320_415838100_411091943" to="36337926_428788320_415838100_290001020" />
	<connection from="32909782_26704482_26785753_26704482" to="32909782_26704482_26785753_26938219" />
	<connection from="32909782_26704482_26785753_26938219" to="32909782_26704482_26785753_26938220" />
	<connection from="4397063_26873453_26873454_26873453" to="4397063_26873453_26873454_152533555" />
	<connection from="4397063_26873453_26873454_152533555" to="4397063_26873453_26873454_417709064" />
	<connection from="4397063_26873453_26873454_417709064" to="4397063_26873453_26873454_391498256" />
	<connection from="25184999_26704628_21487143_26704628" to="25184999_26704628_21487143_251106770" />
	<connection from="25184999_26704628_21487143_251106770" to="25184999_26704628_21487143_26938212" />
	<connection from="25185004_21487168_21487145_21487168" to="25185004_21487168_21487145_26938217" />
	<connection from="30194725_21487173_27011222_21487173" to="30194725_21487173_27011222_299080432" />
	<connection from="30194725_21487173_27011222_299080432" to="30194725_21487173_27011222_26703090" />
	<connection from="30194725_21487173_27011222_26703090" to="30194725_21487173_27011222_26703089" />
	<connection from="4068038_251150126_428788319_251150126" to="4068038_251150126_428788319_21487167" />
	<connection from="4068038_251150126_428788319_21487167" to="4068038_251150126_428788319_272365223" />
</connections>
