<nodes>
    <node id="342813080" x="388098.2673" y="5819491.8723" type="priority"/>
    <node id="21487171" x="388014.8339" y="5819603.2986" type="priority"/>
    <node id="21487170" x="387983.2308" y="5819503.8404" type="priority"/>
    <node id="489741699" x="389528.3012" y="5819674.2053" type="priority"/>
    <node id="252864802" x="387061.2366" y="5819446.4790" type="priority"/>
    <node id="252864801" x="386783.7633" y="5819425.2918" type="priority"/>
    <node id="21487175" x="388079.3269" y="5819476.1742" type="priority"/>
    <node id="21487174" x="388112.2438" y="5819517.0227" type="priority"/>
    <node id="21487173" x="388107.4210" y="5819572.3171" type="priority"/>
    <node id="21487172" x="388042.7590" y="5819609.8767" type="priority"/>
    <node id="21487178" x="388160.7747" y="5819558.3638" type="priority"/>
    <node id="21487176" x="388059.3702" y="5819469.8383" type="priority"/>
    <node id="21487169" x="387978.0437" y="5819562.9638" type="priority"/>
    <node id="26785752" x="386060.7594" y="5819337.2035" type="priority"/>
    <node id="26785753" x="386056.3073" y="5819346.2215" type="priority"/>
    <node id="342813075" x="387981.7256" y="5819573.9165" type="priority"/>
    <node id="342813077" x="388004.7975" y="5819597.5852" type="priority"/>
    <node id="408194192" x="386467.9912" y="5819408.4036" type="priority"/>
    <node id="408194217" x="386494.4724" y="5819411.1859" type="priority"/>
    <node id="540312558" x="387935.0181" y="5819527.4414" type="priority"/>
    <node id="27011806" x="388115.6372" y="5819535.1984" type="priority"/>
    <node id="408194194" x="386469.4787" y="5819394.3606" type="priority"/>
    <node id="408194196" x="386671.4725" y="5819430.0108" type="priority"/>
    <node id="25661282" x="389893.2204" y="5819655.8009" type="priority"/>
    <node id="248919692" x="387108.2187" y="5819453.8860" type="priority"/>
    <node id="25661280" x="389865.5630" y="5819684.0145" type="priority"/>
    <node id="428788320" x="386449.5736" y="5819407.1325" type="priority"/>
    <node id="27011305" x="387919.7077" y="5819526.0937" type="priority"/>
    <node id="27537750" x="386708.2522" y="5819418.9721" type="priority"/>
    <node id="26875018" x="385799.6751" y="5819353.0465" type="priority"/>
    <node id="26870695" x="389883.1007" y="5819646.2651" type="priority"/>
    <node id="281167110" x="389666.8810" y="5819687.2124" type="priority"/>
    <node id="21487168" x="386198.9464" y="5819357.3389" type="priority"/>
    <node id="26870692" x="389862.4404" y="5819660.3133" type="priority"/>
    <node id="26914395" x="389880.0070" y="5819664.1632" type="priority"/>
    <node id="21487167" x="386240.6218" y="5819375.8979" type="priority"/>
    <node id="281788931" x="388113.0641" y="5819558.6044" type="priority"/>
    <node id="406584997" x="388696.4769" y="5819601.7706" type="priority"/>
    <node id="27537749" x="386770.7267" y="5819424.3196" type="priority"/>
    <node id="27011256" x="388138.9263" y="5819537.2135" type="priority"/>
    <node id="27011259" x="388134.1821" y="5819561.9425" type="priority"/>
    <node id="27011308" x="387217.5408" y="5819463.6782" type="priority"/>
    <node id="313006383" x="386678.9984" y="5819416.6772" type="priority"/>
    <node id="27537748" x="386769.6012" y="5819440.0521" type="priority"/>
    <node id="27537747" x="386705.1110" y="5819434.3267" type="priority"/>
    <node id="251106773" x="386050.3656" y="5819360.7928" type="priority"/>
    <node id="27011311" x="387216.3491" y="5819479.4121" type="priority"/>
    <node id="26938217" x="386201.2863" y="5819377.2360" type="priority"/>
    <node id="26938215" x="386183.0482" y="5819417.1383" type="priority"/>
    <node id="26938213" x="386120.1684" y="5819438.9757" type="priority"/>
    <node id="249734328" x="389367.8326" y="5819640.8963" type="priority"/>
    <node id="26938214" x="386152.6495" y="5819435.2492" type="priority"/>
    <node id="26938211" x="386060.4265" y="5819406.4049" type="priority"/>
    <node id="251106770" x="386095.7184" y="5819434.4502" type="priority"/>
    <node id="26938212" x="386078.5074" y="5819423.8134" type="priority"/>
    <node id="428788319" x="386450.8022" y="5819393.0955" type="priority"/>
    <node id="391498256" x="389660.4404" y="5819665.7085" type="priority"/>
    <node id="281787666" x="386179.5741" y="5819328.9229" type="priority"/>
    <node id="82654384" x="389138.0470" y="5819628.6876" type="priority"/>
    <node id="26938209" x="386145.3654" y="5819308.4928" type="priority"/>
    <node id="270964315" x="389135.8474" y="5819640.1986" type="priority"/>
    <node id="281787664" x="386187.2822" y="5819340.2053" type="priority"/>
    <node id="26938208" x="386117.7284" y="5819306.1637" type="priority"/>
    <node id="82654385" x="387199.7610" y="5819461.9651" type="priority"/>
    <node id="26703663" x="388032.6154" y="5819469.1763" type="priority"/>
    <node id="26704447" x="386690.1233" y="5819432.9754" type="priority"/>
    <node id="251150120" x="386165.3540" y="5819430.2845" type="priority"/>
    <node id="26704448" x="386692.4879" y="5819417.6387" type="priority"/>
    <node id="281787660" x="387960.2777" y="5819556.1538" type="priority"/>
    <node id="251150123" x="386036.0608" y="5819377.6811" type="priority"/>
    <node id="595589819" x="387996.6927" y="5819591.4031" type="priority"/>
    <node id="251150126" x="386228.8694" y="5819374.4728" type="priority"/>
    <node id="272365223" x="386355.9565" y="5819385.1069" type="priority"/>
    <node id="299080426" x="388046.0463" y="5819467.5958" type="priority"/>
    <node id="299080425" x="388020.0550" y="5819472.0103" type="priority"/>
    <node id="26938204" x="386217.4011" y="5819371.3432" type="priority"/>
    <node id="26704584" x="386091.8868" y="5819311.4340" type="priority"/>
    <node id="265786533" x="386831.2402" y="5819428.8642" type="priority"/>
    <node id="26870674" x="389849.7220" y="5819702.1992" type="priority"/>
    <node id="26938203" x="386215.0169" y="5819391.3501" type="priority"/>
    <node id="281787656" x="387947.7920" y="5819525.4512" type="priority"/>
    <node id="281787657" x="387961.1709" y="5819518.7778" type="priority"/>
    <node id="281787658" x="387973.9639" y="5819543.1059" type="priority"/>
    <node id="281787659" x="387943.0001" y="5819548.0591" type="priority"/>
    <node id="152533555" x="389399.7459" y="5819643.5716" type="priority"/>
    <node id="276365492" x="385945.9136" y="5819365.7706" type="priority"/>
    <node id="417709064" x="389529.7376" y="5819654.6463" type="priority"/>
    <node id="299080432" x="388095.8730" y="5819588.2872" type="priority"/>
    <node id="27423744" x="387998.7875" y="5819484.8069" type="priority"/>
    <node id="270964430" x="388958.5370" y="5819623.8393" type="priority"/>
    <node id="276365467" x="385985.0989" y="5819369.1034" type="priority"/>
    <node id="406585016" x="388700.9734" y="5819585.9622" type="priority"/>
    <node id="410846037" x="386536.4042" y="5819415.7330" type="priority"/>
    <node id="423839224" x="386684.8421" y="5819417.3911" type="priority"/>
    <node id="423839225" x="386682.9854" y="5819432.2915" type="priority"/>
    <node id="270964434" x="388853.0316" y="5819613.4975" type="priority"/>
    <node id="27011842" x="388124.6970" y="5819526.5016" type="priority"/>
    <node id="270964435" x="388718.3418" y="5819603.8208" type="priority"/>
    <node id="26703090" x="388084.0406" y="5819597.4720" type="priority"/>
    <node id="197687090" x="388089.8001" y="5819484.0003" type="priority"/>
    <node id="415838100" x="386229.3535" y="5819389.7436" type="priority"/>
    <node id="27011222" x="388057.3639" y="5819608.6939" type="priority"/>
    <node id="290001020" x="386290.7192" y="5819394.6863" type="priority"/>
    <node id="27011229" x="387975.4783" y="5819524.3935" type="priority"/>
    <node id="27011227" x="388031.2667" y="5819608.4414" type="priority"/>
    <node id="26704526" x="385769.0479" y="5819239.1451" type="priority"/>
    <node id="27011225" x="387986.7729" y="5819582.2910" type="priority"/>
    <node id="341364267" x="387467.6186" y="5819501.6501" type="priority"/>
    <node id="414959615" x="388733.2565" y="5819587.7757" type="priority"/>
    <node id="341364270" x="387468.1994" y="5819484.6569" type="priority"/>
    <node id="21668930" x="386782.5828" y="5819441.4500" type="priority"/>
    <node id="27011219" x="387930.4593" y="5819543.2520" type="priority"/>
    <node id="341364277" x="387353.0447" y="5819474.5687" type="priority"/>
    <node id="341364279" x="387101.3299" y="5819452.7713" type="priority"/>
    <node id="26704628" x="386109.0183" y="5819438.3859" type="priority"/>
    <node id="262454829" x="389862.6922" y="5819703.1810" type="priority"/>
    <node id="271749621" x="387669.7180" y="5819519.9342" type="priority"/>
    <node id="415838099" x="386457.8117" y="5819407.7905" type="priority"/>
    <node id="26938219" x="386018.2242" y="5819356.8710" type="priority"/>
    <node id="213045012" x="388678.7920" y="5819601.3235" type="priority"/>
    <node id="197667550" x="386051.6499" y="5819385.3840" type="priority"/>
    <node id="26938221" x="386050.0047" y="5819373.1117" type="priority"/>
    <node id="26938220" x="386040.2167" y="5819355.9348" type="priority"/>
    <node id="27011241" x="388008.7919" y="5819477.7863" type="priority"/>
    <node id="26703689" x="389385.9676" y="5819661.2868" type="priority"/>
    <node id="564738832" x="389322.3617" y="5819642.7725" type="priority"/>
    <node id="26938223" x="386015.3439" y="5819372.2201" type="priority"/>
    <node id="21487148" x="386176.2916" y="5819424.5118" type="priority"/>
    <node id="21487147" x="386069.9115" y="5819324.2556" type="priority"/>
    <node id="26938222" x="386044.9395" y="5819386.3891" type="priority"/>
    <node id="21487143" x="386068.4836" y="5819415.9810" type="priority"/>
    <node id="21487144" x="386128.4417" y="5819438.3589" type="priority"/>
    <node id="21487145" x="386196.5473" y="5819398.9957" type="priority"/>
    <node id="21487146" x="386162.7370" y="5819314.8811" type="priority"/>
    <node id="26703089" x="388070.6812" y="5819604.9936" type="priority"/>
    <node id="21487142" x="386056.8092" y="5819398.4235" type="priority"/>
    <node id="26738489" x="386571.3816" y="5819405.1595" type="priority"/>
    <node id="282745683" x="387897.7030" y="5819540.6056" type="priority"/>
    <node id="414959598" x="388732.2831" y="5819604.7776" type="priority"/>
    <node id="26873454" x="389852.2501" y="5819682.1914" type="priority"/>
    <node id="27011231" x="388105.2298" y="5819501.9011" type="priority"/>
    <node id="26873453" x="389385.3519" y="5819642.6231" type="priority"/>
    <node id="26704482" x="385805.7157" y="5819337.1991" type="priority"/>
    <node id="26873451" x="388163.0791" y="5819543.0294" type="priority"/>
    <node id="27011237" x="387991.6401" y="5819492.1868" type="priority"/>
    <node id="21677261" x="387061.0846" y="5819465.1605" type="priority"/>
    <node id="272256206" x="386459.3639" y="5819393.7461" type="priority"/>
    <node id="411091943" x="386385.0923" y="5819401.8356" type="priority"/>
    <node id="270964379" x="388465.9691" y="5819583.6667" type="priority"/>
</nodes>
