<?xml version="1.0" encoding="UTF-8"?>

<!-- generated on 01/28/14 14:52:20 by SUMO netconvert Version 0.19.0
<?xml version="1.0" encoding="UTF-8"?>

<configuration xmlns:xsi="http://www.w3.org/2001/XMLSchema-instance" xsi:noNamespaceSchemaLocation="http://sumo-sim.org/xsd/netconvertConfiguration.xsd">

    <input>
        <node-files value="tiergarten.nod.xml"/>
        <edge-files value="tiergarten.edg.xml"/>
        <connection-files value="tiergarten.con.xml"/>
    </input>

    <output>
        <output-file value="tiergarten.net.xml"/>
    </output>

</configuration>
-->

<net version="0.13" xmlns:xsi="http://www.w3.org/2001/XMLSchema-instance"
     xsi:noNamespaceSchemaLocation="http://sumo-sim.org/xsd/net_file.xsd">

    <location netOffset="-385769.05,-5819239.15" convBoundary="0.00,0.00,4124.17,464.04"
              origBoundary="385769.05,5819239.15,389893.22,5819703.18" projParameter="!"/>

    <edge id=":152533555_0" function="internal">
        <lane id=":152533555_0_0" index="0" speed="13.89" length="0.10" shape="3630.81,402.78 3630.81,402.78"/>
    </edge>
    <edge id=":197667550_0" function="internal">
        <lane id=":197667550_0_0" index="0" speed="13.89" length="0.39" shape="281.07,146.84 280.97,146.46"/>
    </edge>
    <edge id=":197687090_0" function="internal">
        <lane id=":197687090_0_0" index="0" speed="13.89" length="0.17" shape="2321.74,243.54 2321.87,243.64"/>
    </edge>
    <edge id=":213045012_0" function="internal">
        <lane id=":213045012_0_0" index="0" speed="13.89" length="0.10" shape="2909.70,363.83 2909.70,363.83"/>
    </edge>
    <edge id=":21487142_0" function="internal">
        <lane id=":21487142_0_0" index="0" speed="13.89" length="11.20"
              shape="287.12,161.85 285.59,159.13 283.99,157.32 282.12,155.70 279.78,153.54"/>
    </edge>
    <edge id=":21487142_1" function="internal">
        <lane id=":21487142_1_0" index="0" speed="13.89" length="11.18"
              shape="287.12,161.85 285.85,158.97 284.93,156.71 284.05,154.44 282.91,151.50"/>
    </edge>
    <edge id=":21487143_0" function="internal">
        <lane id=":21487143_0_0" index="0" speed="13.89" length="0.33" shape="298.42,178.13 298.18,177.90"/>
    </edge>
    <edge id=":21487144_0" function="internal">
        <lane id=":21487144_0_0" index="0" speed="13.89" length="0.10" shape="359.60,200.85 359.60,200.85"/>
    </edge>
    <edge id=":21487145_0" function="internal">
        <lane id=":21487145_0_0" index="0" speed="13.89" length="5.71" shape="433.14,159.30 428.04,161.88"/>
    </edge>
    <edge id=":21487145_1" function="internal">
        <lane id=":21487145_1_0" index="0" speed="13.89" length="5.61" shape="429.90,156.59 428.04,161.88"/>
    </edge>
    <edge id=":21487146_0" function="internal">
        <lane id=":21487146_0_0" index="0" speed="13.89" length="0.55" shape="394.27,74.19 394.74,74.46"/>
    </edge>
    <edge id=":21487147_0" function="internal">
        <lane id=":21487147_0_0" index="0" speed="13.89" length="0.68" shape="299.52,84.15 300.02,83.69"/>
    </edge>
    <edge id=":21487148_0" function="internal">
        <lane id=":21487148_0_0" index="0" speed="13.89" length="0.55" shape="408.45,186.49 408.02,186.82"/>
    </edge>
    <edge id=":21487167_0" function="internal">
        <lane id=":21487167_0_0" index="0" speed="13.89" length="0.10" shape="471.77,135.11 471.71,135.11"/>
    </edge>
    <edge id=":21487168_0" function="internal">
        <lane id=":21487168_0_0" index="0" speed="13.89" length="5.86" shape="431.01,116.90 435.65,120.48"/>
    </edge>
    <edge id=":21487168_1" function="internal">
        <lane id=":21487168_1_0" index="0" speed="13.89" length="5.73" shape="431.01,116.90 432.07,122.53"/>
    </edge>
    <edge id=":21487169_0" function="internal">
        <lane id=":21487169_0_0" index="0" speed="13.89" length="6.40"
              shape="2208.40,327.22 2207.82,326.18 2206.80,325.21 2205.34,324.30 2203.43,323.45"/>
    </edge>
    <edge id=":21487169_1" function="internal">
        <lane id=":21487169_1_0" index="0" speed="13.89" length="6.74" shape="2208.40,327.22 2206.67,320.71"/>
    </edge>
    <edge id=":21487170_0" function="internal">
        <lane id=":21487170_0_0" index="0" speed="13.89" length="8.47" shape="2207.41,267.29 2214.06,262.05"/>
    </edge>
    <edge id=":21487170_1" function="internal">
        <lane id=":21487170_1_0" index="0" speed="13.89" length="8.47" shape="2210.52,269.74 2214.06,262.05"/>
    </edge>
    <edge id=":21487171_0" function="internal">
        <lane id=":21487171_0_0" index="0" speed="13.89" length="0.34" shape="2245.29,365.73 2244.97,365.59"/>
    </edge>
    <edge id=":21487172_0" function="internal">
        <lane id=":21487172_0_0" index="0" speed="13.89" length="0.33" shape="2273.84,372.38 2273.51,372.37"/>
    </edge>
    <edge id=":21487173_0" function="internal">
        <lane id=":21487173_0_0" index="0" speed="13.89" length="5.44" shape="2344.51,332.56 2339.43,334.53"/>
    </edge>
    <edge id=":21487173_1" function="internal">
        <lane id=":21487173_1_0" index="0" speed="13.89" length="5.37" shape="2341.62,329.62 2339.43,334.53"/>
    </edge>
    <edge id=":21487174_0" function="internal">
        <lane id=":21487174_0_0" index="0" speed="13.89" length="5.51" shape="2344.70,277.20 2349.20,280.37"/>
    </edge>
    <edge id=":21487174_1" function="internal">
        <lane id=":21487174_1_0" index="0" speed="13.89" length="5.41" shape="2344.70,277.20 2345.74,282.51"/>
    </edge>
    <edge id=":21487175_0" function="internal">
        <lane id=":21487175_0_0" index="0" speed="13.89" length="0.53" shape="2310.79,235.46 2311.26,235.70"/>
    </edge>
    <edge id=":21487176_0" function="internal">
        <lane id=":21487176_0_0" index="0" speed="13.89" length="0.22" shape="2290.60,229.07 2290.82,229.12"/>
    </edge>
    <edge id=":21487178_0" function="internal">
        <lane id=":21487178_0_0" index="0" speed="13.89" length="0.35" shape="2391.94,320.89 2391.60,320.90"/>
    </edge>
    <edge id=":21668930_0" function="internal">
        <lane id=":21668930_0_0" index="0" speed="13.89" length="9.54" shape="1018.13,204.35 1008.64,203.44"/>
    </edge>
    <edge id=":21668930_1" function="internal">
        <lane id=":21668930_1_0" index="0" speed="13.89" length="7.91"
              shape="1018.13,204.35 1015.36,203.92 1013.42,203.15 1012.30,202.05 1012.00,200.63"/>
    </edge>
    <edge id=":21668930_2" function="internal">
        <lane id=":21668930_2_0" index="0" speed="13.89" length="3.03" shape="1015.29,200.87 1014.79,202.25 1013.51,203.14"/>
    </edge>
    <edge id=":21668930_3" function="internal">
        <lane id=":21668930_3_0" index="0" speed="13.89" length="2.41" shape="1015.29,200.87 1014.38,202.04 1013.53,202.39"/>
    </edge>
    <edge id=":21668930_4" function="internal">
        <lane id=":21668930_4_0" index="0" speed="13.89" length="4.91" shape="1013.51,203.14 1011.46,203.54 1008.64,203.44"/>
    </edge>
    <edge id=":21668930_5" function="internal">
        <lane id=":21668930_5_0" index="0" speed="13.89" length="2.41" shape="1013.53,202.39 1012.74,201.92 1012.00,200.63"/>
    </edge>
    <edge id=":21677261_0" function="internal">
        <lane id=":21677261_0_0" index="0" speed="13.89" length="9.51" shape="1296.63,228.09 1287.16,227.26"/>
    </edge>
    <edge id=":21677261_1" function="internal">
        <lane id=":21677261_1_0" index="0" speed="13.89" length="7.98"
              shape="1296.63,228.09 1293.90,227.64 1291.95,226.86 1290.78,225.75 1290.40,224.30"/>
    </edge>
    <edge id=":21677261_2" function="internal">
        <lane id=":21677261_2_0" index="0" speed="13.89" length="3.26" shape="1293.70,224.33 1293.28,225.82 1292.05,226.80 1291.92,226.83"/>
    </edge>
    <edge id=":21677261_3" function="internal">
        <lane id=":21677261_3_0" index="0" speed="13.89" length="2.41" shape="1293.70,224.33 1292.87,225.56 1292.04,225.97"/>
    </edge>
    <edge id=":21677261_4" function="internal">
        <lane id=":21677261_4_0" index="0" speed="13.89" length="4.81" shape="1291.92,226.83 1290.01,227.28 1287.16,227.26"/>
    </edge>
    <edge id=":21677261_5" function="internal">
        <lane id=":21677261_5_0" index="0" speed="13.89" length="2.41" shape="1292.04,225.97 1291.22,225.55 1290.40,224.30"/>
    </edge>
    <edge id=":248919692_0" function="internal">
        <lane id=":248919692_0_0" index="0" speed="13.89" length="0.12" shape="1339.32,213.09 1339.43,213.11"/>
    </edge>
    <edge id=":249734328_0" function="internal">
        <lane id=":249734328_0_0" index="0" speed="13.89" length="0.22" shape="3598.72,400.10 3598.94,400.11"/>
    </edge>
    <edge id=":251106770_0" function="internal">
        <lane id=":251106770_0_0" index="0" speed="13.89" length="0.42" shape="326.20,196.89 325.81,196.71"/>
    </edge>
    <edge id=":251106773_0" function="internal">
        <lane id=":251106773_0_0" index="0" speed="13.89" length="0.57" shape="279.67,121.59 279.79,121.03"/>
    </edge>
    <edge id=":251150120_0" function="internal">
        <lane id=":251150120_0_0" index="0" speed="13.89" length="0.18" shape="397.07,192.60 396.91,192.68"/>
    </edge>
    <edge id=":251150123_0" function="internal">
        <lane id=":251150123_0_0" index="0" speed="13.89" length="0.82" shape="266.47,140.32 265.76,139.91"/>
    </edge>
    <edge id=":251150126_0" function="internal">
        <lane id=":251150126_0_0" index="0" speed="13.89" length="5.42"
              shape="458.22,136.82 458.40,135.38 459.05,134.41 460.16,133.92 461.74,133.90"/>
    </edge>
    <edge id=":251150126_1" function="internal">
        <lane id=":251150126_1_0" index="0" speed="13.89" length="6.40" shape="455.51,132.44 461.74,133.90"/>
    </edge>
    <edge id=":252864801_0" function="internal">
        <lane id=":252864801_0_0" index="0" speed="13.89" length="9.50" shape="1010.10,184.15 1019.58,184.86"/>
    </edge>
    <edge id=":252864801_1" function="internal">
        <lane id=":252864801_1_0" index="0" speed="13.89" length="7.85"
              shape="1010.10,184.15 1012.88,184.55 1014.83,185.28 1015.96,186.34 1016.25,187.72"/>
    </edge>
    <edge id=":252864801_2" function="internal">
        <lane id=":252864801_2_0" index="0" speed="13.89" length="2.96" shape="1012.96,187.48 1013.46,186.15 1014.73,185.27"/>
    </edge>
    <edge id=":252864801_3" function="internal">
        <lane id=":252864801_3_0" index="0" speed="13.89" length="2.41" shape="1012.96,187.48 1013.88,186.31 1014.73,185.95"/>
    </edge>
    <edge id=":252864801_4" function="internal">
        <lane id=":252864801_4_0" index="0" speed="13.89" length="4.89" shape="1014.73,185.27 1016.77,184.84 1019.58,184.86"/>
    </edge>
    <edge id=":252864801_5" function="internal">
        <lane id=":252864801_5_0" index="0" speed="13.89" length="2.41" shape="1014.73,185.95 1015.52,186.43 1016.25,187.72"/>
    </edge>
    <edge id=":252864802_0" function="internal">
        <lane id=":252864802_0_0" index="0" speed="13.89" length="9.66" shape="1287.57,205.33 1297.17,206.44"/>
    </edge>
    <edge id=":252864802_1" function="internal">
        <lane id=":252864802_1_0" index="0" speed="13.89" length="8.15"
              shape="1287.57,205.33 1290.31,205.75 1292.27,206.55 1293.44,207.73 1293.82,209.28"/>
    </edge>
    <edge id=":252864802_2" function="internal">
        <lane id=":252864802_2_0" index="0" speed="13.89" length="3.40"
              shape="1290.52,209.25 1290.95,207.64 1292.20,206.63 1292.32,206.60"/>
    </edge>
    <edge id=":252864802_3" function="internal">
        <lane id=":252864802_3_0" index="0" speed="13.89" length="2.41" shape="1290.52,209.25 1291.36,208.02 1292.19,207.62"/>
    </edge>
    <edge id=":252864802_4" function="internal">
        <lane id=":252864802_4_0" index="0" speed="13.89" length="4.89" shape="1292.32,206.60 1294.27,206.23 1297.17,206.44"/>
    </edge>
    <edge id=":252864802_5" function="internal">
        <lane id=":252864802_5_0" index="0" speed="13.89" length="2.41" shape="1292.19,207.62 1293.01,208.04 1293.82,209.28"/>
    </edge>
    <edge id=":25661280_0" function="internal">
        <lane id=":25661280_0_0" index="0" speed="13.89" length="6.55" shape="4100.92,441.62 4097.81,447.38"/>
    </edge>
    <edge id=":25661280_1" function="internal">
        <lane id=":25661280_1_0" index="0" speed="13.89" length="5.71"
              shape="4095.30,443.04 4096.62,443.47 4097.47,444.34 4097.87,445.64 4097.81,447.38"/>
    </edge>
    <edge id=":262454829_0" function="internal">
        <lane id=":262454829_0_0" index="0" speed="13.89" length="2.45"
              shape="4095.27,464.33 4095.08,464.96 4094.73,465.40 4094.23,465.64 4093.57,465.68"/>
    </edge>
    <edge id=":265786533_0" function="internal">
        <lane id=":265786533_0_0" index="0" speed="13.89" length="0.10" shape="1062.32,188.07 1062.32,188.07"/>
    </edge>
    <edge id=":26703089_0" function="internal">
        <lane id=":26703089_0_0" index="0" speed="13.89" length="0.39" shape="2302.44,367.29 2302.08,367.44"/>
    </edge>
    <edge id=":26703090_0" function="internal">
        <lane id=":26703090_0_0" index="0" speed="13.89" length="0.24" shape="2316.00,359.63 2315.81,359.76"/>
    </edge>
    <edge id=":26703663_0" function="internal">
        <lane id=":26703663_0_0" index="0" speed="13.89" length="0.17" shape="2263.21,228.42 2263.37,228.39"/>
    </edge>
    <edge id=":26703689_0" function="internal">
        <lane id=":26703689_0_0" index="0" speed="13.89" length="9.54" shape="3621.53,424.22 3612.03,423.39"/>
    </edge>
    <edge id=":26703689_1" function="internal">
        <lane id=":26703689_1_0" index="0" speed="13.89" length="8.07"
              shape="3621.53,424.22 3618.81,423.76 3616.84,422.97 3615.65,421.84 3615.21,420.37"/>
    </edge>
    <edge id=":26703689_2" function="internal">
        <lane id=":26703689_2_0" index="0" speed="13.89" length="3.37" shape="3618.51,420.26 3618.15,421.83 3616.95,422.88 3616.79,422.92"/>
    </edge>
    <edge id=":26703689_3" function="internal">
        <lane id=":26703689_3_0" index="0" speed="13.89" length="2.41" shape="3618.51,420.26 3617.72,421.52 3616.91,421.96"/>
    </edge>
    <edge id=":26703689_4" function="internal">
        <lane id=":26703689_4_0" index="0" speed="13.89" length="4.82" shape="3616.79,422.92 3614.91,423.40 3612.03,423.39"/>
    </edge>
    <edge id=":26703689_5" function="internal">
        <lane id=":26703689_5_0" index="0" speed="13.89" length="2.41" shape="3616.91,421.96 3616.08,421.57 3615.21,420.37"/>
    </edge>
    <edge id=":26704447_0" function="internal">
        <lane id=":26704447_0_0" index="0" speed="13.89" length="7.18" shape="925.66,195.90 918.51,195.24"/>
    </edge>
    <edge id=":26704447_1" function="internal">
        <lane id=":26704447_1_0" index="0" speed="13.89" length="8.03"
              shape="925.66,195.90 922.86,195.43 920.93,194.62 919.87,193.46 919.70,191.94"/>
    </edge>
    <edge id=":26704447_2" function="internal">
        <lane id=":26704447_2_0" index="0" speed="13.89" length="2.96" shape="922.96,192.45 922.50,193.81 921.60,194.73 921.38,194.81"/>
    </edge>
    <edge id=":26704447_3" function="internal">
        <lane id=":26704447_3_0" index="0" speed="13.89" length="2.41" shape="922.96,192.45 921.95,193.54 921.08,193.83"/>
    </edge>
    <edge id=":26704447_4" function="internal">
        <lane id=":26704447_4_0" index="0" speed="13.89" length="2.94" shape="921.38,194.81 920.27,195.21 918.51,195.24"/>
    </edge>
    <edge id=":26704447_5" function="internal">
        <lane id=":26704447_5_0" index="0" speed="13.89" length="2.41" shape="921.08,193.83 920.32,193.29 919.70,191.94"/>
    </edge>
    <edge id=":26704448_0" function="internal">
        <lane id=":26704448_0_0" index="0" speed="13.89" length="9.41" shape="918.93,176.70 928.32,177.25"/>
    </edge>
    <edge id=":26704448_1" function="internal">
        <lane id=":26704448_1_0" index="0" speed="13.89" length="8.03"
              shape="918.93,176.70 921.70,177.02 923.61,177.77 924.64,178.95 924.79,180.57"/>
    </edge>
    <edge id=":26704448_2" function="internal">
        <lane id=":26704448_2_0" index="0" speed="13.89" length="3.20" shape="921.53,180.06 922.15,178.63 923.48,177.69"/>
    </edge>
    <edge id=":26704448_3" function="internal">
        <lane id=":26704448_3_0" index="0" speed="13.89" length="2.41" shape="921.53,180.06 922.53,178.97 923.41,178.68"/>
    </edge>
    <edge id=":26704448_4" function="internal">
        <lane id=":26704448_4_0" index="0" speed="13.89" length="4.89" shape="923.48,177.69 925.54,177.23 928.32,177.25"/>
    </edge>
    <edge id=":26704448_5" function="internal">
        <lane id=":26704448_5_0" index="0" speed="13.89" length="2.41" shape="923.41,178.68 924.16,179.22 924.79,180.57"/>
    </edge>
    <edge id=":26704482_0" function="internal">
        <lane id=":26704482_0_0" index="0" speed="13.89" length="1.80" shape="37.50,95.57 37.72,95.98 38.01,96.29 38.39,96.50 38.85,96.60"/>
    </edge>
    <edge id=":26704584_0" function="internal">
        <lane id=":26704584_0_0" index="0" speed="13.89" length="0.52" shape="322.01,70.86 322.50,70.67"/>
    </edge>
    <edge id=":26704628_0" function="internal">
        <lane id=":26704628_0_0" index="0" speed="13.89" length="0.37" shape="339.88,200.89 339.51,200.82"/>
    </edge>
    <edge id=":26738489_0" function="internal">
        <lane id=":26738489_0_0" index="0" speed="13.89" length="0.10" shape="802.51,164.37 802.51,164.37"/>
    </edge>
    <edge id=":26785752_0" function="internal">
        <lane id=":26785752_0_0" index="0" speed="13.89" length="0.25" shape="290.23,97.32 290.36,97.11"/>
    </edge>
    <edge id=":26785753_0" function="internal">
        <lane id=":26785753_0_0" index="0" speed="13.89" length="8.12" shape="280.52,109.21 286.86,104.15"/>
    </edge>
    <edge id=":26785753_1" function="internal">
        <lane id=":26785753_1_0" index="0" speed="13.89" length="8.34" shape="283.55,111.80 286.86,104.15"/>
    </edge>
    <edge id=":26870674_0" function="internal">
        <lane id=":26870674_0_0" index="0" speed="13.89" length="6.21" shape="4081.99,464.81 4075.80,464.31"/>
    </edge>
    <edge id=":26870674_1" function="internal">
        <lane id=":26870674_1_0" index="0" speed="13.89" length="5.06"
              shape="4081.99,464.81 4080.63,464.51 4079.71,463.84 4079.24,462.81 4079.22,461.41"/>
    </edge>
    <edge id=":26870692_0" function="internal">
        <lane id=":26870692_0_0" index="0" speed="13.89" length="0.85" shape="4091.90,420.46 4092.45,419.81"/>
    </edge>
    <edge id=":26873451_0" function="internal">
        <lane id=":26873451_0_0" index="0" speed="13.89" length="0.25" shape="2394.17,302.22 2394.42,302.26"/>
    </edge>
    <edge id=":26873453_0" function="internal">
        <lane id=":26873453_0_0" index="0" speed="13.89" length="3.34" shape="3614.71,405.30 3615.07,403.76 3616.27,402.72 3616.43,402.67"/>
    </edge>
    <edge id=":26873453_1" function="internal">
        <lane id=":26873453_1_0" index="0" speed="13.89" length="2.41" shape="3614.71,405.30 3615.50,404.04 3616.31,403.60"/>
    </edge>
    <edge id=":26873453_4" function="internal">
        <lane id=":26873453_4_0" index="0" speed="13.89" length="4.80" shape="3616.43,402.67 3618.30,402.18 3621.16,402.14"/>
    </edge>
    <edge id=":26873453_5" function="internal">
        <lane id=":26873453_5_0" index="0" speed="13.89" length="2.41" shape="3616.31,403.60 3617.15,403.98 3618.01,405.19"/>
    </edge>
    <edge id=":26873453_2" function="internal">
        <lane id=":26873453_2_0" index="0" speed="13.89" length="9.49" shape="3611.70,401.37 3621.16,402.14"/>
    </edge>
    <edge id=":26873453_3" function="internal">
        <lane id=":26873453_3_0" index="0" speed="13.89" length="8.02"
              shape="3611.70,401.37 3614.42,401.84 3616.38,402.63 3617.58,403.75 3618.01,405.19"/>
    </edge>
    <edge id=":26873454_0" function="internal">
        <lane id=":26873454_0_0" index="0" speed="13.89" length="6.44"
              shape="4078.61,441.00 4080.28,440.92 4081.69,440.38 4082.86,439.38 4083.77,437.92"/>
    </edge>
    <edge id=":26873454_1" function="internal">
        <lane id=":26873454_1_0" index="0" speed="13.89" length="7.28" shape="4078.61,441.00 4085.86,441.74"/>
    </edge>
    <edge id=":26873454_2" function="internal">
        <lane id=":26873454_2_0" index="0" speed="13.89" length="6.92" shape="4081.37,444.41 4083.77,437.92"/>
    </edge>
    <edge id=":26873454_3" function="internal">
        <lane id=":26873454_3_0" index="0" speed="13.89" length="5.94"
              shape="4081.37,444.41 4081.80,443.03 4082.69,442.13 4084.04,441.70 4085.86,441.74"/>
    </edge>
    <edge id=":26914395_0" function="internal">
        <lane id=":26914395_0_0" index="0" speed="13.89" length="0.60" shape="4112.37,426.08 4111.93,426.49"/>
    </edge>
    <edge id=":26938203_0" function="internal">
        <lane id=":26938203_0_0" index="0" speed="13.89" length="0.45" shape="446.61,153.79 446.18,153.91"/>
    </edge>
    <edge id=":26938204_0" function="internal">
        <lane id=":26938204_0_0" index="0" speed="13.89" length="0.61" shape="448.85,130.50 449.40,130.77"/>
    </edge>
    <edge id=":26938208_0" function="internal">
        <lane id=":26938208_0_0" index="0" speed="13.89" length="0.45" shape="348.36,65.40 348.81,65.37"/>
    </edge>
    <edge id=":26938209_0" function="internal">
        <lane id=":26938209_0_0" index="0" speed="13.89" length="0.43" shape="376.46,67.70 376.88,67.80"/>
    </edge>
    <edge id=":26938211_0" function="internal">
        <lane id=":26938211_0_0" index="0" speed="13.89" length="0.44" shape="290.11,168.32 289.88,167.95"/>
    </edge>
    <edge id=":26938212_0" function="internal">
        <lane id=":26938212_0_0" index="0" speed="13.89" length="0.18" shape="308.59,186.07 308.45,185.97"/>
    </edge>
    <edge id=":26938213_0" function="internal">
        <lane id=":26938213_0_0" index="0" speed="13.89" length="0.20" shape="351.24,201.48 351.04,201.48"/>
    </edge>
    <edge id=":26938214_0" function="internal">
        <lane id=":26938214_0_0" index="0" speed="13.89" length="0.39" shape="384.20,197.64 383.82,197.74"/>
    </edge>
    <edge id=":26938215_0" function="internal">
        <lane id=":26938215_0_0" index="0" speed="13.89" length="0.16" shape="415.32,178.98 415.22,179.11"/>
    </edge>
    <edge id=":26938217_0" function="internal">
        <lane id=":26938217_0_0" index="0" speed="13.89" length="0.53" shape="433.88,137.91 433.85,138.43"/>
    </edge>
    <edge id=":26938219_0" function="internal">
        <lane id=":26938219_0_0" index="0" speed="13.89" length="0.22" shape="249.11,116.06 249.33,116.07"/>
    </edge>
    <edge id=":26938220_0" function="internal">
        <lane id=":26938220_0_0" index="0" speed="13.89" length="0.79" shape="270.27,115.18 271.03,114.95"/>
    </edge>
    <edge id=":26938221_0" function="internal">
        <lane id=":26938221_0_0" index="0" speed="13.89" length="0.26" shape="279.32,134.18 279.31,133.92"/>
    </edge>
    <edge id=":26938222_0" function="internal">
        <lane id=":26938222_0_0" index="0" speed="13.89" length="0.10" shape="274.72,148.40 274.74,148.42"/>
    </edge>
    <edge id=":26938223_0" function="internal">
        <lane id=":26938223_0_0" index="0" speed="13.89" length="0.25" shape="246.12,134.73 245.88,134.69"/>
    </edge>
    <edge id=":27011219_0" function="internal">
        <lane id=":27011219_0_0" index="0" speed="13.89" length="0.46" shape="2161.26,305.81 2160.81,305.71"/>
    </edge>
    <edge id=":27011222_0" function="internal">
        <lane id=":27011222_0_0" index="0" speed="13.89" length="0.30" shape="2288.75,371.14 2288.45,371.19"/>
    </edge>
    <edge id=":27011225_0" function="internal">
        <lane id=":27011225_0_0" index="0" speed="13.89" length="0.46" shape="2216.60,344.36 2216.32,344.00"/>
    </edge>
    <edge id=":27011227_0" function="internal">
        <lane id=":27011227_0_0" index="0" speed="13.89" length="0.29" shape="2262.01,370.93 2261.73,370.87"/>
    </edge>
    <edge id=":27011229_0" function="internal">
        <lane id=":27011229_0_0" index="0" speed="13.89" length="0.45" shape="2204.79,285.11 2204.88,284.67"/>
    </edge>
    <edge id=":27011231_0" function="internal">
        <lane id=":27011231_0_0" index="0" speed="13.89" length="0.28" shape="2337.54,261.82 2337.68,262.06"/>
    </edge>
    <edge id=":27011237_0" function="internal">
        <lane id=":27011237_0_0" index="0" speed="13.89" length="0.23" shape="2221.26,252.07 2221.40,251.90"/>
    </edge>
    <edge id=":27011241_0" function="internal">
        <lane id=":27011241_0_0" index="0" speed="13.89" length="0.22" shape="2238.80,237.29 2238.99,237.17"/>
    </edge>
    <edge id=":27011256_0" function="internal">
        <lane id=":27011256_0_0" index="0" speed="13.89" length="0.65" shape="2370.33,296.34 2370.92,296.62"/>
    </edge>
    <edge id=":27011259_0" function="internal">
        <lane id=":27011259_0_0" index="0" speed="13.89" length="0.38" shape="2365.74,324.38 2365.37,324.48"/>
    </edge>
    <edge id=":27011305_0" function="internal">
        <lane id=":27011305_0_0" index="0" speed="13.89" length="0.10" shape="2150.81,285.31 2150.80,285.30"/>
    </edge>
    <edge id=":27011308_0" function="internal">
        <lane id=":27011308_0_0" index="0" speed="13.89" length="0.10" shape="1448.65,222.89 1448.63,222.89"/>
    </edge>
    <edge id=":27011311_0" function="internal">
        <lane id=":27011311_0_0" index="0" speed="13.89" length="0.10" shape="1447.15,241.91 1447.15,241.91"/>
    </edge>
    <edge id=":27011806_0" function="internal">
        <lane id=":27011806_0_0" index="0" speed="13.89" length="0.47" shape="2348.21,295.76 2348.23,296.23"/>
    </edge>
    <edge id=":27011842_0" function="internal">
        <lane id=":27011842_0_0" index="0" speed="13.89" length="0.10" shape="2356.65,286.04 2356.64,286.04"/>
    </edge>
    <edge id=":270964315_0" function="internal">
        <lane id=":270964315_0_0" index="0" speed="13.89" length="0.10" shape="3366.65,402.70 3366.65,402.70"/>
    </edge>
    <edge id=":270964379_0" function="internal">
        <lane id=":270964379_0_0" index="0" speed="13.89" length="0.10" shape="2696.78,346.17 2696.78,346.17"/>
    </edge>
    <edge id=":270964430_0" function="internal">
        <lane id=":270964430_0_0" index="0" speed="13.89" length="0.10" shape="3189.33,386.34 3189.33,386.34"/>
    </edge>
    <edge id=":270964434_0" function="internal">
        <lane id=":270964434_0_0" index="0" speed="13.89" length="0.10" shape="3083.82,375.99 3083.86,376.00"/>
    </edge>
    <edge id=":270964435_0" function="internal">
        <lane id=":270964435_0_0" index="0" speed="13.89" length="0.10" shape="2949.14,366.32 2949.14,366.32"/>
    </edge>
    <edge id=":271749621_0" function="internal">
        <lane id=":271749621_0_0" index="0" speed="13.89" length="0.10" shape="1900.52,282.43 1900.52,282.43"/>
    </edge>
    <edge id=":272256206_0" function="internal">
        <lane id=":272256206_0_0" index="0" speed="13.89" length="0.10" shape="690.44,152.96 690.42,152.95"/>
    </edge>
    <edge id=":272365223_0" function="internal">
        <lane id=":272365223_0_0" index="0" speed="13.89" length="0.10" shape="587.04,144.32 587.04,144.32"/>
    </edge>
    <edge id=":27423744_0" function="internal">
        <lane id=":27423744_0_0" index="0" speed="13.89" length="0.30" shape="2228.56,244.51 2228.79,244.31"/>
    </edge>
    <edge id=":27537747_0" function="internal">
        <lane id=":27537747_0_0" index="0" speed="13.89" length="0.10" shape="935.92,196.83 935.92,196.83"/>
    </edge>
    <edge id=":27537748_0" function="internal">
        <lane id=":27537748_0_0" index="0" speed="13.89" length="0.10" shape="1000.38,202.55 1000.41,202.55"/>
    </edge>
    <edge id=":27537749_0" function="internal">
        <lane id=":27537749_0_0" index="0" speed="13.89" length="0.10" shape="1001.82,183.53 1001.80,183.53"/>
    </edge>
    <edge id=":27537750_0" function="internal">
        <lane id=":27537750_0_0" index="0" speed="13.89" length="0.10" shape="939.34,178.18 939.34,178.18"/>
    </edge>
    <edge id=":276365467_0" function="internal">
        <lane id=":276365467_0_0" index="0" speed="13.89" length="0.10" shape="215.88,131.60 215.91,131.60"/>
    </edge>
    <edge id=":276365492_0" function="internal">
        <lane id=":276365492_0_0" index="0" speed="13.89" length="0.10" shape="176.72,128.27 176.72,128.27"/>
    </edge>
    <edge id=":281167110_0" function="internal">
        <lane id=":281167110_0_0" index="0" speed="13.89" length="0.10" shape="3897.69,449.71 3897.69,449.71"/>
    </edge>
    <edge id=":281787656_0" function="internal">
        <lane id=":281787656_0_0" index="0" speed="13.89" length="0.49" shape="2177.99,284.75 2178.46,284.60"/>
    </edge>
    <edge id=":281787657_0" function="internal">
        <lane id=":281787657_0_0" index="0" speed="13.89" length="0.21" shape="2191.19,278.25 2191.38,278.15"/>
    </edge>
    <edge id=":281787658_0" function="internal">
        <lane id=":281787658_0_0" index="0" speed="13.89" length="0.45" shape="2203.30,304.29 2203.27,303.83"/>
    </edge>
    <edge id=":281787659_0" function="internal">
        <lane id=":281787659_0_0" index="0" speed="13.89" length="0.12" shape="2173.36,310.46 2173.25,310.41"/>
    </edge>
    <edge id=":281787660_0" function="internal">
        <lane id=":281787660_0_0" index="0" speed="13.89" length="0.12" shape="2190.64,318.55 2190.53,318.50"/>
    </edge>
    <edge id=":281787664_0" function="internal">
        <lane id=":281787664_0_0" index="0" speed="13.89" length="0.10" shape="419.60,100.13 419.60,100.13"/>
    </edge>
    <edge id=":281787666_0" function="internal">
        <lane id=":281787666_0_0" index="0" speed="13.89" length="0.44" shape="411.59,88.52 411.88,88.84"/>
    </edge>